@<TRIPOS>MOLECULE
MOL
   53    56     1     0     0
SMALL
bcc


@<TRIPOS>ATOM
      1 C1           3.4530    -1.2770     2.0050 c3         1 MOL      -0.092100
      2 C2           2.4840    -1.5710     0.8720 c3         1 MOL      -0.076400
      3 C3           2.3780    -3.0720     0.5960 c3         1 MOL      -0.072400
      4 C4           1.3210    -3.4030    -0.4620 c3         1 MOL      -0.103700
      5 C5           1.6940    -2.9040    -1.8240 cc         1 MOL       0.429800
      6 N1           2.8570    -3.1200    -2.4060 nd         1 MOL      -0.651000
      7 C6           2.7870    -2.5370    -3.6400 cd         1 MOL       0.390300
      8 Cl1          4.0870    -2.5880    -4.7370 cl         1 MOL      -0.118000
      9 C7           1.5540    -1.9530    -3.8370 cc         1 MOL      -0.261900
     10 C8           1.0080    -1.2320    -5.0050 c3         1 MOL       0.204700
     11 O1           0.0040    -2.0630    -5.5640 oh         1 MOL      -0.601800
     12 N2           0.8680    -2.1720    -2.6550 na         1 MOL      -0.184900
     13 C9          -0.5050    -1.7660    -2.3680 c3         1 MOL       0.071600
     14 C10         -0.6100    -0.5630    -1.4530 ca         1 MOL      -0.102300
     15 C11          0.2820     0.5170    -1.5130 ca         1 MOL      -0.117500
     16 C12          0.0970     1.6460    -0.7060 ca         1 MOL      -0.118000
     17 C13         -0.9920     1.7350     0.1740 cp         1 MOL      -0.065000
     18 C14         -1.2040     2.9380     0.9990 cp         1 MOL      -0.019000
     19 C15         -1.5250     4.1430     0.3370 ca         1 MOL      -0.122000
     20 C16         -1.7940     5.3150     1.0430 ca         1 MOL      -0.108000
     21 C17         -1.7550     5.3090     2.4310 ca         1 MOL      -0.130000
     22 C18         -1.4360     4.1330     3.1090 ca         1 MOL      -0.081000
     23 C19         -1.1450     2.9420     2.4150 ca         1 MOL      -0.129500
     24 C20         -0.7880     1.7730     3.2210 cc         1 MOL       0.445000
     25 N3          -1.2160     1.4730     4.4340 nd         1 MOL      -0.373000
     26 N4          -0.5890     0.3050     4.7950 nd         1 MOL      -0.051000
     27 N5           0.2290    -0.1080     3.8400 nc         1 MOL      -0.196800
     28 N6           0.1170     0.8080     2.8700 na         1 MOL      -0.171400
     29 C21         -1.8880     0.6580     0.2260 ca         1 MOL      -0.118000
     30 C22         -1.7010    -0.4730    -0.5760 ca         1 MOL      -0.117500
     31 H1           4.4590    -1.6350     1.7640 hc         1 MOL       0.035367
     32 H2           3.5090    -0.1990     2.1850 hc         1 MOL       0.035367
     33 H3           3.1300    -1.7590     2.9330 hc         1 MOL       0.035367
     34 H4           1.4960    -1.1790     1.1320 hc         1 MOL       0.036200
     35 H5           2.8190    -1.0410    -0.0270 hc         1 MOL       0.036200
     36 H6           2.1070    -3.5880     1.5250 hc         1 MOL       0.057700
     37 H7           3.3580    -3.4620     0.2920 hc         1 MOL       0.057700
     38 H8           1.2160    -4.4930    -0.5230 hc         1 MOL       0.057200
     39 H9           0.3530    -3.0160    -0.1320 hc         1 MOL       0.057200
     40 H10          1.7640    -1.0270    -5.7690 h1         1 MOL       0.065700
     41 H11          0.5560    -0.2790    -4.7160 h1         1 MOL       0.065700
     42 H12          0.4580    -2.8550    -5.9050 ho         1 MOL       0.410000
     43 H13         -1.0030    -2.6400    -1.9330 h1         1 MOL       0.086700
     44 H14         -1.0180    -1.5420    -3.3070 h1         1 MOL       0.086700
     45 H15          1.1300     0.5060    -2.1940 ha         1 MOL       0.144000
     46 H16          0.8060     2.4690    -0.7830 ha         1 MOL       0.148500
     47 H17         -1.5890     4.1650    -0.7500 ha         1 MOL       0.144000
     48 H18         -2.0460     6.2280     0.5090 ha         1 MOL       0.141000
     49 H19         -1.9730     6.2160     2.9890 ha         1 MOL       0.144000
     50 H20         -1.4090     4.1490     4.1990 ha         1 MOL       0.161000
     51 H21          0.6680     0.7180     2.0270 hn         1 MOL       0.342700
     52 H22         -2.7570     0.7000     0.8820 ha         1 MOL       0.148500
     53 H23         -2.4330    -1.2780    -0.5190 ha         1 MOL       0.144000
@<TRIPOS>BOND
     1     1     2 1   
     2     2     3 1   
     3     3     4 1   
     4     4     5 1   
     5     5     6 2   
     6     6     7 1   
     7     7     8 1   
     8     7     9 2   
     9     9    10 1   
    10    10    11 1   
    11     9    12 1   
    12    12    13 1   
    13    13    14 1   
    14    14    15 ar  
    15    15    16 ar  
    16    16    17 ar  
    17    17    18 1   
    18    18    19 ar  
    19    19    20 ar  
    20    20    21 ar  
    21    21    22 ar  
    22    22    23 ar  
    23    23    24 1   
    24    24    25 2   
    25    25    26 1   
    26    26    27 2   
    27    27    28 1   
    28    17    29 ar  
    29    29    30 ar  
    30    12     5 1   
    31    30    14 ar  
    32    23    18 ar  
    33    28    24 1   
    34     1    31 1   
    35     1    32 1   
    36     1    33 1   
    37     2    34 1   
    38     2    35 1   
    39     3    36 1   
    40     3    37 1   
    41     4    38 1   
    42     4    39 1   
    43    10    40 1   
    44    10    41 1   
    45    11    42 1   
    46    13    43 1   
    47    13    44 1   
    48    15    45 1   
    49    16    46 1   
    50    19    47 1   
    51    20    48 1   
    52    21    49 1   
    53    22    50 1   
    54    28    51 1   
    55    29    52 1   
    56    30    53 1   
@<TRIPOS>SUBSTRUCTURE
     1 MOL         1 TEMP              0 ****  ****    0 ROOT
