
     RDKit          3D

 53 56  0  0  0  0  0  0  0  0999 V2000
    3.4531   -1.2772    2.0051 C   0  0  0  0  0  0  0  0  0  0  0  0
    2.4841   -1.5712    0.8715 C   0  0  0  0  0  0  0  0  0  0  0  0
    2.3785   -3.0721    0.5958 C   0  0  0  0  0  0  0  0  0  0  0  0
    1.3213   -3.4028   -0.4621 C   0  0  0  0  0  0  0  0  0  0  0  0
    1.6936   -2.9043   -1.8243 C   0  0  0  0  0  0  0  0  0  0  0  0
    2.8566   -3.1197   -2.4061 N   0  0  0  0  0  0  0  0  0  0  0  0
    2.7871   -2.5367   -3.6401 C   0  0  0  0  0  0  0  0  0  0  0  0
    4.0866   -2.5877   -4.7367 Cl  0  0  0  0  0  0  0  0  0  0  0  0
    1.5536   -1.9529   -3.8365 C   0  0  0  0  0  0  0  0  0  0  0  0
    1.0082   -1.2321   -5.0051 C   0  0  0  0  0  0  0  0  0  0  0  0
    0.0041   -2.0633   -5.5642 O   0  0  0  0  0  0  0  0  0  0  0  0
    0.8683   -2.1717   -2.6550 N   0  0  0  0  0  0  0  0  0  0  0  0
   -0.5046   -1.7660   -2.3682 C   0  0  0  0  0  0  0  0  0  0  0  0
   -0.6100   -0.5632   -1.4533 C   0  0  0  0  0  0  0  0  0  0  0  0
    0.2818    0.5171   -1.5127 C   0  0  0  0  0  0  0  0  0  0  0  0
    0.0965    1.6459   -0.7057 C   0  0  0  0  0  0  0  0  0  0  0  0
   -0.9915    1.7346    0.1745 C   0  0  0  0  0  0  0  0  0  0  0  0
   -1.2036    2.9381    0.9993 C   0  0  0  0  0  0  0  0  0  0  0  0
   -1.5253    4.1426    0.3372 C   0  0  0  0  0  0  0  0  0  0  0  0
   -1.7941    5.3154    1.0434 C   0  0  0  0  0  0  0  0  0  0  0  0
   -1.7547    5.3093    2.4309 C   0  0  0  0  0  0  0  0  0  0  0  0
   -1.4363    4.1330    3.1088 C   0  0  0  0  0  0  0  0  0  0  0  0
   -1.1446    2.9419    2.4150 C   0  0  0  0  0  0  0  0  0  0  0  0
   -0.7878    1.7733    3.2210 C   0  0  0  0  0  0  0  0  0  0  0  0
   -1.2162    1.4730    4.4342 N   0  0  0  0  0  0  0  0  0  0  0  0
   -0.5892    0.3053    4.7954 N   0  0  0  0  0  0  0  0  0  0  0  0
    0.2288   -0.1079    3.8400 N   0  0  0  0  0  0  0  0  0  0  0  0
    0.1167    0.8083    2.8701 N   0  0  0  0  0  0  0  0  0  0  0  0
   -1.8883    0.6582    0.2255 C   0  0  0  0  0  0  0  0  0  0  0  0
   -1.7009   -0.4729   -0.5759 C   0  0  0  0  0  0  0  0  0  0  0  0
    4.4590   -1.6350    1.7636 H   0  0  0  0  0  0  0  0  0  0  0  0
    3.5093   -0.1990    2.1849 H   0  0  0  0  0  0  0  0  0  0  0  0
    3.1297   -1.7592    2.9332 H   0  0  0  0  0  0  0  0  0  0  0  0
    1.4964   -1.1788    1.1319 H   0  0  0  0  0  0  0  0  0  0  0  0
    2.8191   -1.0408   -0.0266 H   0  0  0  0  0  0  0  0  0  0  0  0
    2.1067   -3.5885    1.5250 H   0  0  0  0  0  0  0  0  0  0  0  0
    3.3579   -3.4623    0.2925 H   0  0  0  0  0  0  0  0  0  0  0  0
    1.2157   -4.4930   -0.5235 H   0  0  0  0  0  0  0  0  0  0  0  0
    0.3528   -3.0160   -0.1322 H   0  0  0  0  0  0  0  0  0  0  0  0
    1.7635   -1.0270   -5.7691 H   0  0  0  0  0  0  0  0  0  0  0  0
    0.5560   -0.2791   -4.7156 H   0  0  0  0  0  0  0  0  0  0  0  0
    0.4577   -2.8550   -5.9051 H   0  0  0  0  0  0  0  0  0  0  0  0
   -1.0033   -2.6401   -1.9330 H   0  0  0  0  0  0  0  0  0  0  0  0
   -1.0182   -1.5419   -3.3069 H   0  0  0  0  0  0  0  0  0  0  0  0
    1.1304    0.5057   -2.1941 H   0  0  0  0  0  0  0  0  0  0  0  0
    0.8064    2.4686   -0.7831 H   0  0  0  0  0  0  0  0  0  0  0  0
   -1.5889    4.1655   -0.7503 H   0  0  0  0  0  0  0  0  0  0  0  0
   -2.0465    6.2279    0.5087 H   0  0  0  0  0  0  0  0  0  0  0  0
   -1.9726    6.2164    2.9894 H   0  0  0  0  0  0  0  0  0  0  0  0
   -1.4087    4.1485    4.1986 H   0  0  0  0  0  0  0  0  0  0  0  0
    0.6679    0.7183    2.0274 H   0  0  0  0  0  0  0  0  0  0  0  0
   -2.7573    0.6998    0.8821 H   0  0  0  0  0  0  0  0  0  0  0  0
   -2.4326   -1.2779   -0.5191 H   0  0  0  0  0  0  0  0  0  0  0  0
  1  2  1  0
  2  3  1  0
  3  4  1  0
  4  5  1  0
  5  6  2  0
  6  7  1  0
  7  8  1  0
  7  9  2  0
  9 10  1  0
 10 11  1  0
  9 12  1  0
 12 13  1  0
 13 14  1  0
 14 15  2  0
 15 16  1  0
 16 17  2  0
 17 18  1  0
 18 19  2  0
 19 20  1  0
 20 21  2  0
 21 22  1  0
 22 23  2  0
 23 24  1  0
 24 25  2  0
 25 26  1  0
 26 27  2  0
 27 28  1  0
 17 29  1  0
 29 30  2  0
 12  5  1  0
 30 14  1  0
 23 18  1  0
 28 24  1  0
  1 31  1  0
  1 32  1  0
  1 33  1  0
  2 34  1  0
  2 35  1  0
  3 36  1  0
  3 37  1  0
  4 38  1  0
  4 39  1  0
 10 40  1  0
 10 41  1  0
 11 42  1  0
 13 43  1  0
 13 44  1  0
 15 45  1  0
 16 46  1  0
 19 47  1  0
 20 48  1  0
 21 49  1  0
 22 50  1  0
 28 51  1  0
 29 52  1  0
 30 53  1  0
M  END
$$$$
