
     RDKit          3D

 96102  0  0  0  0  0  0  0  0999 V2000
   -2.4717    6.1382   -8.0297 C   0  0  0  0  0  0  0  0  0  0  0  0
   -2.0543    6.5830   -6.7466 O   0  0  0  0  0  0  0  0  0  0  0  0
   -1.7838    5.6360   -5.7925 C   0  0  0  0  0  0  0  0  0  0  0  0
   -1.8131    4.2651   -6.0215 C   0  0  0  0  0  0  0  0  0  0  0  0
   -1.5140    3.3811   -4.9853 C   0  0  0  0  0  0  0  0  0  0  0  0
   -1.1841    3.8429   -3.6929 C   0  0  0  0  0  0  0  0  0  0  0  0
   -0.8765    2.9587   -2.6336 C   0  0  0  0  0  0  0  0  0  0  0  0
   -0.8979    1.6157   -2.9288 O   0  0  0  0  0  0  0  0  0  0  0  0
   -0.3853    0.6988   -1.9697 C   0  0  2  0  0  0  0  0  0  0  0  0
    0.0676   -0.5863   -2.6691 C   0  0  0  0  0  0  0  0  0  0  0  0
   -0.2117   -1.7191   -1.6730 C   0  0  1  0  0  0  0  0  0  0  0  0
    1.0110   -2.4957   -1.2167 C   0  0  0  0  0  0  0  0  0  0  0  0
    2.1516   -2.0578   -1.2710 O   0  0  0  0  0  0  0  0  0  0  0  0
    0.6567   -3.6770   -0.5908 N   0  0  0  0  0  0  0  0  0  0  0  0
    1.5277   -4.4052    0.3188 C   0  0  2  0  0  0  0  0  0  0  0  0
    2.3817   -3.5499    1.2529 C   0  0  0  0  0  0  0  0  0  0  0  0
    3.5814   -3.7344    1.3997 O   0  0  0  0  0  0  0  0  0  0  0  0
    1.6603   -2.5477    1.9059 N   0  0  0  0  0  0  0  0  0  0  0  0
    2.2753   -1.5147    3.0296 S   0  0  0  0  0  0  0  0  0  0  0  0
    2.3986   -2.2478    4.2706 O   0  0  0  0  0  0  0  0  0  0  0  0
    1.4196   -0.3461    2.9629 O   0  0  0  0  0  0  0  0  0  0  0  0
    3.9114   -0.9623    2.4882 C   0  0  0  0  0  0  0  0  0  0  0  0
    4.6110   -0.0776    3.4892 C   0  0  0  0  0  0  0  0  0  0  0  0
    5.0785   -1.4921    3.2785 C   0  0  0  0  0  0  0  0  0  0  0  0
    2.0707   -5.7760   -0.0414 C   0  0  0  0  0  0  0  0  0  0  0  0
    0.8943   -5.6920    0.8789 C   0  0  1  0  0  0  0  0  0  0  0  0
    0.9925   -5.9513    2.3183 C   0  0  0  0  0  0  0  0  0  0  0  0
    0.0876   -5.6146    3.2555 C   0  0  0  0  0  0  0  0  0  0  0  0
   -1.2335   -4.9235    3.0238 C   0  0  0  0  0  0  0  0  0  0  0  0
   -1.3465   -3.6293    3.8350 C   0  0  0  0  0  0  0  0  0  0  0  0
   -2.7083   -2.9335    3.7216 C   0  0  0  0  0  0  0  0  0  0  0  0
   -3.1271   -2.4971    2.3103 C   0  0  0  0  0  0  0  0  0  0  0  0
   -2.1882   -1.6046    1.6134 N   0  0  0  0  0  0  0  0  0  0  0  0
   -1.8682   -0.3459    2.2881 C   0  0  0  0  0  0  0  0  0  0  0  0
   -1.7703   -1.9591    0.3372 C   0  0  0  0  0  0  0  0  0  0  0  0
   -2.0694   -3.0497   -0.1594 O   0  0  0  0  0  0  0  0  0  0  0  0
   -0.8231   -1.0341   -0.4193 C   0  0  2  0  0  0  0  0  0  0  0  0
   -1.4696    0.2067   -1.0132 C   0  0  0  0  0  0  0  0  0  0  0  0
   -0.5935    3.4724   -1.3744 C   0  0  0  0  0  0  0  0  0  0  0  0
   -0.5976    4.8462   -1.1953 C   0  0  0  0  0  0  0  0  0  0  0  0
   -0.3192    5.4117    0.1362 C   0  0  0  0  0  0  0  0  0  0  0  0
   -0.2256    4.6898    1.2403 N   0  0  0  0  0  0  0  0  0  0  0  0
    0.0709    5.4932    2.3333 C   0  0  0  0  0  0  0  0  0  0  0  0
    0.2464    4.8582    3.6868 C   0  0  0  0  0  0  0  0  0  0  0  0
    1.1352    3.6139    3.6213 C   0  0  0  0  0  0  0  0  0  0  0  0
   -1.1047    4.5172    4.3162 C   0  0  0  0  0  0  0  0  0  0  0  0
    0.1736    6.8385    2.0378 C   0  0  0  0  0  0  0  0  0  0  0  0
   -0.0857    7.1018    0.3663 S   0  0  0  0  0  0  0  0  0  0  0  0
   -0.8626    5.7057   -2.2040 N   0  0  0  0  0  0  0  0  0  0  0  0
   -1.1577    5.2305   -3.4377 C   0  0  0  0  0  0  0  0  0  0  0  0
   -1.4545    6.1006   -4.5034 C   0  0  0  0  0  0  0  0  0  0  0  0
   -1.4231    7.8235   -4.2139 Cl  0  0  0  0  0  0  0  0  0  0  0  0
   -1.6828    5.5631   -8.5247 H   0  0  0  0  0  0  0  0  0  0  0  0
   -3.4014    5.5626   -7.9660 H   0  0  0  0  0  0  0  0  0  0  0  0
   -2.6690    7.0233   -8.6413 H   0  0  0  0  0  0  0  0  0  0  0  0
   -2.0608    3.8439   -6.9909 H   0  0  0  0  0  0  0  0  0  0  0  0
   -1.5478    2.3110   -5.1906 H   0  0  0  0  0  0  0  0  0  0  0  0
    0.4852    1.1012   -1.4340 H   0  0  0  0  0  0  0  0  0  0  0  0
   -0.5109   -0.7477   -3.5873 H   0  0  0  0  0  0  0  0  0  0  0  0
    1.1147   -0.5155   -2.9782 H   0  0  0  0  0  0  0  0  0  0  0  0
   -0.9064   -2.4219   -2.1540 H   0  0  0  0  0  0  0  0  0  0  0  0
   -0.3253   -3.9606   -0.6267 H   0  0  0  0  0  0  0  0  0  0  0  0
    0.6534   -2.5335    1.8249 H   0  0  0  0  0  0  0  0  0  0  0  0
    4.0366   -0.7588    1.4353 H   0  0  0  0  0  0  0  0  0  0  0  0
    5.2364    0.7228    3.1087 H   0  0  0  0  0  0  0  0  0  0  0  0
    4.1107    0.1595    4.4223 H   0  0  0  0  0  0  0  0  0  0  0  0
    6.0123   -1.6500    2.7507 H   0  0  0  0  0  0  0  0  0  0  0  0
    4.9058   -2.2129    4.0688 H   0  0  0  0  0  0  0  0  0  0  0  0
    3.0346   -6.0714    0.3646 H   0  0  0  0  0  0  0  0  0  0  0  0
    1.9112   -6.1288   -1.0534 H   0  0  0  0  0  0  0  0  0  0  0  0
   -0.0409   -6.0383    0.4458 H   0  0  0  0  0  0  0  0  0  0  0  0
    1.8922   -6.4642    2.6592 H   0  0  0  0  0  0  0  0  0  0  0  0
    0.3071   -5.8772    4.2910 H   0  0  0  0  0  0  0  0  0  0  0  0
   -1.3764   -4.7084    1.9617 H   0  0  0  0  0  0  0  0  0  0  0  0
   -2.0359   -5.6114    3.3191 H   0  0  0  0  0  0  0  0  0  0  0  0
   -0.5575   -2.9307    3.5432 H   0  0  0  0  0  0  0  0  0  0  0  0
   -1.1725   -3.8536    4.8953 H   0  0  0  0  0  0  0  0  0  0  0  0
   -2.7025   -2.0607    4.3854 H   0  0  0  0  0  0  0  0  0  0  0  0
   -3.4823   -3.6037    4.1170 H   0  0  0  0  0  0  0  0  0  0  0  0
   -3.3349   -3.3886    1.7108 H   0  0  0  0  0  0  0  0  0  0  0  0
   -4.0789   -1.9552    2.3751 H   0  0  0  0  0  0  0  0  0  0  0  0
   -1.3981   -0.5617    3.2498 H   0  0  0  0  0  0  0  0  0  0  0  0
   -2.8005    0.1998    2.4558 H   0  0  0  0  0  0  0  0  0  0  0  0
   -1.1894    0.2830    1.7208 H   0  0  0  0  0  0  0  0  0  0  0  0
   -0.0133   -0.7458    0.2646 H   0  0  0  0  0  0  0  0  0  0  0  0
   -1.7367    0.9597   -0.2698 H   0  0  0  0  0  0  0  0  0  0  0  0
   -2.3950   -0.0339   -1.5516 H   0  0  0  0  0  0  0  0  0  0  0  0
   -0.3759    2.8439   -0.5201 H   0  0  0  0  0  0  0  0  0  0  0  0
    0.7471    5.5824    4.3423 H   0  0  0  0  0  0  0  0  0  0  0  0
    1.3179    3.2159    4.6262 H   0  0  0  0  0  0  0  0  0  0  0  0
    0.6741    2.8184    3.0246 H   0  0  0  0  0  0  0  0  0  0  0  0
    2.1069    3.8474    3.1700 H   0  0  0  0  0  0  0  0  0  0  0  0
   -1.7309    5.4081    4.4000 H   0  0  0  0  0  0  0  0  0  0  0  0
   -1.6515    3.7823    3.7181 H   0  0  0  0  0  0  0  0  0  0  0  0
   -0.9751    4.1048    5.3220 H   0  0  0  0  0  0  0  0  0  0  0  0
    0.3784    7.6591    2.7076 H   0  0  0  0  0  0  0  0  0  0  0  0
  1  2  1  0
  2  3  1  0
  3  4  2  0
  4  5  1  0
  5  6  2  0
  6  7  1  0
  7  8  1  0
  8  9  1  0
  9 10  1  0
 10 11  1  0
 11 12  1  0
 12 13  2  0
 12 14  1  0
 14 15  1  0
 15 16  1  1
 16 17  2  0
 16 18  1  0
 18 19  1  0
 19 20  2  0
 19 21  2  0
 19 22  1  0
 22 23  1  0
 23 24  1  0
 15 25  1  0
 25 26  1  0
 26 27  1  0
 27 28  2  0
 28 29  1  0
 29 30  1  0
 30 31  1  0
 31 32  1  0
 32 33  1  0
 33 34  1  0
 33 35  1  0
 35 36  2  0
 35 37  1  0
 37 38  1  0
  7 39  2  0
 39 40  1  0
 40 41  1  0
 41 42  2  0
 42 43  1  0
 43 44  1  0
 44 45  1  0
 44 46  1  0
 43 47  2  0
 47 48  1  0
 40 49  2  0
 49 50  1  0
 50 51  2  0
 51 52  1  0
 51  3  1  0
 50  6  1  0
 38  9  1  0
 48 41  1  0
 37 11  1  0
 26 15  1  0
 24 22  1  0
  1 53  1  0
  1 54  1  0
  1 55  1  0
  4 56  1  0
  5 57  1  0
  9 58  1  1
 10 59  1  0
 10 60  1  0
 11 61  1  6
 14 62  1  0
 18 63  1  0
 22 64  1  0
 23 65  1  0
 23 66  1  0
 24 67  1  0
 24 68  1  0
 25 69  1  0
 25 70  1  0
 26 71  1  6
 27 72  1  0
 28 73  1  0
 29 74  1  0
 29 75  1  0
 30 76  1  0
 30 77  1  0
 31 78  1  0
 31 79  1  0
 32 80  1  0
 32 81  1  0
 34 82  1  0
 34 83  1  0
 34 84  1  0
 37 85  1  1
 38 86  1  0
 38 87  1  0
 39 88  1  0
 44 89  1  0
 45 90  1  0
 45 91  1  0
 45 92  1  0
 46 93  1  0
 46 94  1  0
 46 95  1  0
 47 96  1  0
M  END
$$$$
