@<TRIPOS>MOLECULE
MOL
   96   102     1     0     0
SMALL
bcc


@<TRIPOS>ATOM
      1 C1          -2.4720     6.1380    -8.0300 c3         1 MOL       0.112700
      2 O1          -2.0540     6.5830    -6.7470 os         1 MOL      -0.311900
      3 C2          -1.7840     5.6360    -5.7930 ca         1 MOL       0.146100
      4 C3          -1.8130     4.2650    -6.0210 ca         1 MOL      -0.196000
      5 C4          -1.5140     3.3810    -4.9850 ca         1 MOL      -0.052000
      6 C5          -1.1840     3.8430    -3.6930 ca         1 MOL      -0.186300
      7 C6          -0.8760     2.9590    -2.6340 ca         1 MOL       0.182100
      8 O2          -0.8980     1.6160    -2.9290 os         1 MOL      -0.326900
      9 C7          -0.3850     0.6990    -1.9700 c3         1 MOL       0.140100
     10 C8           0.0680    -0.5860    -2.6690 c3         1 MOL      -0.075400
     11 C9          -0.2120    -1.7190    -1.6730 c3         1 MOL      -0.135700
     12 C10          1.0110    -2.4960    -1.2170 c          1 MOL       0.664100
     13 O3           2.1520    -2.0580    -1.2710 o          1 MOL      -0.605100
     14 N1           0.6570    -3.6770    -0.5910 ns         1 MOL      -0.531900
     15 C11          1.5280    -4.4050     0.3190 cx         1 MOL      -0.031600
     16 C12          2.3820    -3.5500     1.2530 c          1 MOL       0.740100
     17 O4           3.5810    -3.7340     1.4000 o          1 MOL      -0.558100
     18 N2           1.6600    -2.5480     1.9060 ns         1 MOL      -0.673300
     19 S1           2.2750    -1.5150     3.0300 s6         1 MOL       1.494600
     20 O5           2.3990    -2.2480     4.2710 o          1 MOL      -0.659300
     21 O6           1.4200    -0.3460     2.9630 o          1 MOL      -0.659300
     22 C13          3.9110    -0.9620     2.4880 cx         1 MOL      -0.436900
     23 C14          4.6110    -0.0780     3.4890 cx         1 MOL      -0.040900
     24 C15          5.0790    -1.4920     3.2790 cx         1 MOL      -0.040900
     25 C16          2.0710    -5.7760    -0.0410 cx         1 MOL      -0.090400
     26 C17          0.8940    -5.6920     0.8790 cx         1 MOL      -0.077500
     27 C18          0.9930    -5.9510     2.3180 c2         1 MOL      -0.166200
     28 C19          0.0880    -5.6150     3.2560 c2         1 MOL      -0.144200
     29 C20         -1.2340    -4.9230     3.0240 c3         1 MOL      -0.063200
     30 C21         -1.3470    -3.6290     3.8350 c3         1 MOL      -0.068400
     31 C22         -2.7080    -2.9330     3.7220 c3         1 MOL      -0.093400
     32 C23         -3.1270    -2.4970     2.3100 c3         1 MOL       0.083000
     33 N3          -2.1880    -1.6050     1.6130 n          1 MOL      -0.458800
     34 C24         -1.8680    -0.3460     2.2880 c3         1 MOL       0.055300
     35 C25         -1.7700    -1.9590     0.3370 c          1 MOL       0.659100
     36 O7          -2.0690    -3.0500    -0.1590 o          1 MOL      -0.650100
     37 C26         -0.8230    -1.0340    -0.4190 c3         1 MOL      -0.136700
     38 C27         -1.4700     0.2070    -1.0130 c3         1 MOL      -0.101400
     39 C28         -0.5940     3.4720    -1.3740 ca         1 MOL      -0.315300
     40 C29         -0.5980     4.8460    -1.1950 ca         1 MOL       0.443300
     41 C30         -0.3190     5.4120     0.1360 cc         1 MOL       0.287400
     42 N4          -0.2260     4.6900     1.2400 nd         1 MOL      -0.623000
     43 C31          0.0710     5.4930     2.3330 cd         1 MOL       0.347600
     44 C32          0.2460     4.8580     3.6870 c3         1 MOL      -0.088000
     45 C33          1.1350     3.6140     3.6210 c3         1 MOL      -0.087100
     46 C34         -1.1050     4.5170     4.3160 c3         1 MOL      -0.087100
     47 C35          0.1740     6.8380     2.0380 cc         1 MOL      -0.295400
     48 S2          -0.0860     7.1020     0.3660 ss         1 MOL       0.060700
     49 N5          -0.8630     5.7060    -2.2040 nb         1 MOL      -0.694000
     50 C36         -1.1580     5.2310    -3.4380 ca         1 MOL       0.459600
     51 C37         -1.4540     6.1010    -4.5030 ca         1 MOL      -0.078900
     52 Cl1         -1.4230     7.8240    -4.2140 cl         1 MOL      -0.047400
     53 H1          -1.6830     5.5630    -8.5250 h1         1 MOL       0.048033
     54 H2          -3.4010     5.5630    -7.9660 h1         1 MOL       0.048033
     55 H3          -2.6690     7.0230    -8.6410 h1         1 MOL       0.048033
     56 H4          -2.0610     3.8440    -6.9910 ha         1 MOL       0.146000
     57 H5          -1.5480     2.3110    -5.1910 ha         1 MOL       0.154000
     58 H6           0.4850     1.1010    -1.4340 h1         1 MOL       0.071700
     59 H7          -0.5110    -0.7480    -3.5870 hc         1 MOL       0.082200
     60 H8           1.1150    -0.5150    -2.9780 hc         1 MOL       0.082200
     61 H9          -0.9060    -2.4220    -2.1540 hc         1 MOL       0.103700
     62 H10         -0.3250    -3.9610    -0.6270 hn         1 MOL       0.338500
     63 H11          0.6530    -2.5340     1.8250 hn         1 MOL       0.333500
     64 H12          4.0370    -0.7590     1.4350 h1         1 MOL       0.157700
     65 H13          5.2360     0.7230     3.1090 hc         1 MOL       0.091700
     66 H14          4.1110     0.1600     4.4220 hc         1 MOL       0.091700
     67 H15          6.0120    -1.6500     2.7510 hc         1 MOL       0.091700
     68 H16          4.9060    -2.2130     4.0690 hc         1 MOL       0.091700
     69 H17          3.0350    -6.0710     0.3650 hc         1 MOL       0.095200
     70 H18          1.9110    -6.1290    -1.0530 hc         1 MOL       0.095200
     71 H19         -0.0410    -6.0380     0.4460 hc         1 MOL       0.096700
     72 H20          1.8920    -6.4640     2.6590 ha         1 MOL       0.139000
     73 H21          0.3070    -5.8770     4.2910 ha         1 MOL       0.128000
     74 H22         -1.3760    -4.7080     1.9620 hc         1 MOL       0.055200
     75 H23         -2.0360    -5.6110     3.3190 hc         1 MOL       0.055200
     76 H24         -0.5570    -2.9310     3.5430 hc         1 MOL       0.042700
     77 H25         -1.1730    -3.8540     4.8950 hc         1 MOL       0.042700
     78 H26         -2.7030    -2.0610     4.3850 hc         1 MOL       0.048700
     79 H27         -3.4820    -3.6040     4.1170 hc         1 MOL       0.048700
     80 H28         -3.3350    -3.3890     1.7110 h1         1 MOL       0.063200
     81 H29         -4.0790    -1.9550     2.3750 h1         1 MOL       0.063200
     82 H30         -1.3980    -0.5620     3.2500 h1         1 MOL       0.057367
     83 H31         -2.8000     0.2000     2.4560 h1         1 MOL       0.057367
     84 H32         -1.1890     0.2830     1.7210 h1         1 MOL       0.057367
     85 H33         -0.0130    -0.7460     0.2650 hc         1 MOL       0.095700
     86 H34         -1.7370     0.9600    -0.2700 hc         1 MOL       0.074700
     87 H35         -2.3950    -0.0340    -1.5520 hc         1 MOL       0.074700
     88 H36         -0.3760     2.8440    -0.5200 ha         1 MOL       0.171000
     89 H37          0.7470     5.5820     4.3420 hc         1 MOL       0.050700
     90 H38          1.3180     3.2160     4.6260 hc         1 MOL       0.039367
     91 H39          0.6740     2.8180     3.0250 hc         1 MOL       0.039367
     92 H40          2.1070     3.8470     3.1700 hc         1 MOL       0.039367
     93 H41         -1.7310     5.4080     4.4000 hc         1 MOL       0.039367
     94 H42         -1.6510     3.7820     3.7180 hc         1 MOL       0.039367
     95 H43         -0.9750     4.1050     5.3220 hc         1 MOL       0.039367
     96 H44          0.3780     7.6590     2.7080 h4         1 MOL       0.182000
@<TRIPOS>BOND
     1     1     2 1   
     2     2     3 1   
     3     3     4 ar  
     4     4     5 ar  
     5     5     6 ar  
     6     6     7 ar  
     7     7     8 1   
     8     8     9 1   
     9     9    10 1   
    10    10    11 1   
    11    11    12 1   
    12    12    13 2   
    13    12    14 1   
    14    14    15 1   
    15    15    16 1   
    16    16    17 2   
    17    16    18 1   
    18    18    19 1   
    19    19    20 2   
    20    19    21 2   
    21    19    22 1   
    22    22    23 1   
    23    23    24 1   
    24    15    25 1   
    25    25    26 1   
    26    26    27 1   
    27    27    28 2   
    28    28    29 1   
    29    29    30 1   
    30    30    31 1   
    31    31    32 1   
    32    32    33 1   
    33    33    34 1   
    34    33    35 1   
    35    35    36 2   
    36    35    37 1   
    37    37    38 1   
    38     7    39 ar  
    39    39    40 ar  
    40    40    41 1   
    41    41    42 2   
    42    42    43 1   
    43    43    44 1   
    44    44    45 1   
    45    44    46 1   
    46    43    47 2   
    47    47    48 1   
    48    40    49 ar  
    49    49    50 ar  
    50    50    51 ar  
    51    51    52 1   
    52    51     3 ar  
    53    50     6 ar  
    54    38     9 1   
    55    48    41 1   
    56    37    11 1   
    57    26    15 1   
    58    24    22 1   
    59     1    53 1   
    60     1    54 1   
    61     1    55 1   
    62     4    56 1   
    63     5    57 1   
    64     9    58 1   
    65    10    59 1   
    66    10    60 1   
    67    11    61 1   
    68    14    62 1   
    69    18    63 1   
    70    22    64 1   
    71    23    65 1   
    72    23    66 1   
    73    24    67 1   
    74    24    68 1   
    75    25    69 1   
    76    25    70 1   
    77    26    71 1   
    78    27    72 1   
    79    28    73 1   
    80    29    74 1   
    81    29    75 1   
    82    30    76 1   
    83    30    77 1   
    84    31    78 1   
    85    31    79 1   
    86    32    80 1   
    87    32    81 1   
    88    34    82 1   
    89    34    83 1   
    90    34    84 1   
    91    37    85 1   
    92    38    86 1   
    93    38    87 1   
    94    39    88 1   
    95    44    89 1   
    96    45    90 1   
    97    45    91 1   
    98    45    92 1   
    99    46    93 1   
   100    46    94 1   
   101    46    95 1   
   102    47    96 1   
@<TRIPOS>SUBSTRUCTURE
     1 MOL         1 TEMP              0 ****  ****    0 ROOT
