@<TRIPOS>MOLECULE
MOL
  149   153     1     0     0
SMALL
bcc


@<TRIPOS>ATOM
      1 C1          -2.1070    -0.3010    -7.6570 c3         1 MOL       0.112700
      2 O1          -1.9700    -0.8890    -6.3680 os         1 MOL      -0.420600
      3 C2          -2.9560    -0.4220    -5.4400 c3         1 MOL       0.177300
      4 C3          -3.1060    -1.4640    -4.3210 c3         1 MOL      -0.071400
      5 C4          -3.1580    -2.9250    -4.7780 c3         1 MOL       0.154100
      6 C5          -4.3460    -3.2420    -5.6770 c3         1 MOL      -0.107400
      7 C6          -4.3710    -4.7350    -5.9890 c3         1 MOL      -0.077400
      8 C7          -4.3250    -5.5820    -4.7030 c3         1 MOL      -0.057700
      9 C8          -4.2190    -7.0620    -5.0890 c3         1 MOL      -0.095100
     10 C9          -3.1840    -5.1160    -3.7650 c3         1 MOL       0.280600
     11 O2          -1.9270    -5.4550    -4.3280 oh         1 MOL      -0.601800
     12 O3          -3.2640    -3.6970    -3.5760 os         1 MOL      -0.464600
     13 C10         -3.3700    -5.6720    -2.3360 c          1 MOL       0.504100
     14 O4          -4.1740    -6.5210    -1.9710 o          1 MOL      -0.462100
     15 C11         -2.4250    -5.0460    -1.3260 c          1 MOL       0.598100
     16 O5          -1.2230    -5.2270    -1.5060 o          1 MOL      -0.609100
     17 N1          -2.9630    -4.2470    -0.3140 n          1 MOL      -0.433800
     18 C12         -4.3970    -4.1060    -0.0860 c3         1 MOL       0.090000
     19 C13         -4.7560    -2.6630     0.2240 c3         1 MOL      -0.095400
     20 C14         -3.9670    -2.1740     1.4270 c3         1 MOL      -0.080400
     21 C15         -2.4440    -2.2930     1.2010 c3         1 MOL      -0.064700
     22 C16         -2.0390    -3.6850     0.6850 c3         1 MOL       0.025700
     23 C17         -1.7550    -4.6390     1.8470 c          1 MOL       0.695600
     24 O6          -2.2630    -5.7470     1.9680 o          1 MOL      -0.561500
     25 O7          -0.8480    -4.1750     2.7500 os         1 MOL      -0.409900
     26 C18         -0.4580    -2.7730     2.7900 c3         1 MOL       0.143100
     27 C19          0.7840    -2.5480     1.9210 c3         1 MOL      -0.213400
     28 C20          2.0460    -3.0480     2.6200 c          1 MOL       0.585100
     29 O8           2.1770    -2.9740     3.8430 o          1 MOL      -0.533100
     30 C21          3.1530    -3.6110     1.7160 c3         1 MOL      -0.117500
     31 C22          4.2850    -4.2720     2.5010 c3         1 MOL      -0.089100
     32 C23          3.6610    -2.5920     0.7200 c2         1 MOL      -0.186200
     33 C24          4.1510    -1.3470     0.9180 c2         1 MOL      -0.100400
     34 C25          4.3220    -0.7180     2.2810 c3         1 MOL      -0.082900
     35 C26          4.6190    -0.4440    -0.2330 c3         1 MOL       0.147300
     36 O9           4.6910    -1.2050    -1.4550 oh         1 MOL      -0.613800
     37 C27          3.7430     0.8180    -0.5040 c3         1 MOL       0.050100
     38 O10          2.3430     0.5750    -0.3170 os         1 MOL      -0.404600
     39 C28          1.7460    -0.1150    -1.4090 c3         1 MOL       0.109700
     40 C29          4.2230     2.0240     0.3320 c          1 MOL       0.583100
     41 O11          5.3050     2.0130     0.9290 o          1 MOL      -0.531100
     42 C30          3.3640     3.2930     0.3760 c3         1 MOL      -0.149700
     43 C31          2.1930     3.1120     1.3350 c3         1 MOL      -0.098100
     44 C32          2.9490     3.7550    -1.0280 c3         1 MOL      -0.077400
     45 C33          2.2440     5.1210    -1.0400 c3         1 MOL      -0.069400
     46 C34          1.9600     5.6680    -2.4600 c3         1 MOL      -0.035500
     47 C35          1.3050     7.0500    -2.3590 c3         1 MOL      -0.092100
     48 C36          1.1780     4.6650    -3.2790 c2         1 MOL      -0.149200
     49 C37         -0.1290     4.6860    -3.5870 ce         1 MOL      -0.145000
     50 C38         -0.7840     3.6110    -4.3030 ce         1 MOL      -0.121000
     51 C39         -0.6380     2.3230    -3.9550 cf         1 MOL      -0.134000
     52 C40         -1.2240     1.1890    -4.6230 cf         1 MOL      -0.124000
     53 C41         -2.5300     0.9060    -4.8110 c2         1 MOL      -0.147400
     54 C42         -3.6710     1.7820    -4.3690 c3         1 MOL      -0.061900
     55 C43         -1.6960    -1.8940     2.5070 c3         1 MOL      -0.094700
     56 C44         -1.4710    -0.3610     2.5640 c3         1 MOL      -0.071400
     57 C45         -1.0130     0.1700     3.9470 c3         1 MOL      -0.064700
     58 C46         -1.7330     1.4860     4.3160 c3         1 MOL      -0.076400
     59 C47         -0.9180     2.7150     3.9300 c3         1 MOL      -0.095400
     60 C48          0.4100     2.7650     4.6980 c3         1 MOL       0.136100
     61 O12          0.2010     3.4700     5.9380 os         1 MOL      -0.417600
     62 C49          0.4960     4.8640     5.8560 c3         1 MOL       0.093400
     63 C50          1.9910     5.1380     6.0100 c3         1 MOL       0.093400
     64 O13          2.2470     6.5390     6.0090 oh         1 MOL      -0.595800
     65 C51          0.9590     1.3610     5.0510 c3         1 MOL       0.140100
     66 O14          2.3940     1.4580     5.0740 os         1 MOL      -0.430600
     67 C52          3.0140     0.4430     5.8540 c3         1 MOL       0.114700
     68 C53          0.5190     0.3300     4.0090 c3         1 MOL      -0.100400
     69 H1          -2.0290     0.7890    -7.6050 h1         1 MOL       0.037033
     70 H2          -1.3020    -0.6770    -8.2920 h1         1 MOL       0.037033
     71 H3          -3.0640    -0.5880    -8.1050 h1         1 MOL       0.037033
     72 H4          -3.9150    -0.3090    -5.9620 h1         1 MOL       0.044700
     73 H5          -2.2570    -1.3860    -3.6260 hc         1 MOL       0.062700
     74 H6          -3.9890    -1.2340    -3.7090 hc         1 MOL       0.062700
     75 H7          -2.2160    -3.1770    -5.2800 h1         1 MOL       0.080700
     76 H8          -4.2990    -2.6730    -6.6120 hc         1 MOL       0.051200
     77 H9          -5.2810    -2.9730    -5.1700 hc         1 MOL       0.051200
     78 H10         -5.2740    -4.9730    -6.5640 hc         1 MOL       0.055700
     79 H11         -3.5140    -4.9800    -6.6300 hc         1 MOL       0.055700
     80 H12         -5.2830    -5.4290    -4.1870 hc         1 MOL       0.063700
     81 H13         -4.2210    -7.7120    -4.2100 hc         1 MOL       0.049700
     82 H14         -3.3040    -7.2660    -5.6570 hc         1 MOL       0.049700
     83 H15         -5.0680    -7.3560    -5.7150 hc         1 MOL       0.049700
     84 H16         -1.2620    -5.3530    -3.6190 ho         1 MOL       0.443000
     85 H17         -4.9730    -4.4230    -0.9580 h1         1 MOL       0.066200
     86 H18         -4.6700    -4.7650     0.7460 h1         1 MOL       0.066200
     87 H19         -4.5360    -2.0280    -0.6440 hc         1 MOL       0.056700
     88 H20         -5.8300    -2.5810     0.4240 hc         1 MOL       0.056700
     89 H21         -4.2650    -2.7620     2.3050 hc         1 MOL       0.053700
     90 H22         -4.2390    -1.1330     1.6340 hc         1 MOL       0.053700
     91 H23         -2.1830    -1.5790     0.4060 hc         1 MOL       0.067700
     92 H24         -1.0840    -3.5810     0.1640 h1         1 MOL       0.109700
     93 H25         -0.1990    -2.6030     3.8410 h1         1 MOL       0.113700
     94 H26          0.7090    -3.0840     0.9740 hc         1 MOL       0.085700
     95 H27          0.9480    -1.4900     1.7050 hc         1 MOL       0.085700
     96 H28          2.6670    -4.4140     1.1440 hc         1 MOL       0.065700
     97 H29          5.0130    -4.7330     1.8240 hc         1 MOL       0.047367
     98 H30          4.8200    -3.5620     3.1380 hc         1 MOL       0.047367
     99 H31          3.8910    -5.0590     3.1550 hc         1 MOL       0.047367
    100 H32          3.5840    -2.9540    -0.3060 ha         1 MOL       0.129000
    101 H33          5.3460    -0.3470     2.3990 hc         1 MOL       0.060033
    102 H34          4.1490    -1.4100     3.1040 hc         1 MOL       0.060033
    103 H35          3.6260     0.1180     2.4070 hc         1 MOL       0.060033
    104 H36          5.6570    -0.1470    -0.0410 h1         1 MOL       0.073700
    105 H37          5.3850    -1.8730    -1.3110 ho         1 MOL       0.410000
    106 H38          3.9060     1.1290    -1.5460 h1         1 MOL       0.080700
    107 H39          1.9190     0.4190    -2.3480 h1         1 MOL       0.041367
    108 H40          2.1150    -1.1400    -1.4810 h1         1 MOL       0.041367
    109 H41          0.6680    -0.1570    -1.2300 h1         1 MOL       0.041367
    110 H42          4.0140     4.0700     0.8000 hc         1 MOL       0.075700
    111 H43          1.7930     4.0820     1.6470 hc         1 MOL       0.053367
    112 H44          2.5080     2.5760     2.2360 hc         1 MOL       0.053367
    113 H45          1.3710     2.5510     0.8820 hc         1 MOL       0.053367
    114 H46          2.2890     3.0040    -1.4740 hc         1 MOL       0.044700
    115 H47          3.8410     3.8040    -1.6650 hc         1 MOL       0.044700
    116 H48          1.2980     5.0460    -0.4890 hc         1 MOL       0.047700
    117 H49          2.8670     5.8470    -0.5010 hc         1 MOL       0.047700
    118 H50          2.9220     5.8100    -2.9710 hc         1 MOL       0.054700
    119 H51          1.9710     7.7520    -1.8450 hc         1 MOL       0.038033
    120 H52          1.0950     7.4600    -3.3520 hc         1 MOL       0.038033
    121 H53          0.3660     7.0150    -1.7950 hc         1 MOL       0.038033
    122 H54          1.7740     3.8220    -3.6310 ha         1 MOL       0.118000
    123 H55         -0.7680     5.5150    -3.2970 ha         1 MOL       0.129000
    124 H56         -1.4410     3.8990    -5.1200 ha         1 MOL       0.128000
    125 H57          0.0290     2.0590    -3.1360 ha         1 MOL       0.121000
    126 H58         -0.4830     0.4460    -4.9250 ha         1 MOL       0.140000
    127 H59         -4.3640     1.2150    -3.7380 hc         1 MOL       0.045700
    128 H60         -3.3530     2.6490    -3.7870 hc         1 MOL       0.045700
    129 H61         -4.2230     2.1460    -5.2420 hc         1 MOL       0.045700
    130 H62         -2.3860    -2.1270     3.3330 hc         1 MOL       0.073700
    131 H63         -2.4250     0.1130     2.3050 hc         1 MOL       0.048700
    132 H64         -0.7780    -0.0480     1.7740 hc         1 MOL       0.048700
    133 H65         -1.3130    -0.5590     4.7120 hc         1 MOL       0.065700
    134 H66         -2.7290     1.5380     3.8640 hc         1 MOL       0.047200
    135 H67         -1.9000     1.5050     5.4020 hc         1 MOL       0.047200
    136 H68         -0.7160     2.6800     2.8520 hc         1 MOL       0.046700
    137 H69         -1.5110     3.6160     4.1200 hc         1 MOL       0.046700
    138 H70          1.1470     3.3080     4.0960 h1         1 MOL       0.062700
    139 H71          0.1050     5.3010     4.9280 h1         1 MOL       0.049700
    140 H72         -0.0420     5.3590     6.6730 h1         1 MOL       0.049700
    141 H73          2.5610     4.6880     5.1920 h1         1 MOL       0.057700
    142 H74          2.3730     4.7040     6.9400 h1         1 MOL       0.057700
    143 H75          1.8860     6.8980     6.8380 ho         1 MOL       0.396000
    144 H76          0.6060     1.0680     6.0490 h1         1 MOL       0.068700
    145 H77          2.6780     0.5010     6.8930 h1         1 MOL       0.036700
    146 H78          4.0950     0.6080     5.8290 h1         1 MOL       0.036700
    147 H79          2.8110    -0.5510     5.4470 h1         1 MOL       0.036700
    148 H80          0.9260     0.6270     3.0340 hc         1 MOL       0.057700
    149 H81          0.9750    -0.6370     4.2250 hc         1 MOL       0.057700
@<TRIPOS>BOND
     1     1     2 1   
     2     2     3 1   
     3     3     4 1   
     4     4     5 1   
     5     5     6 1   
     6     6     7 1   
     7     7     8 1   
     8     8     9 1   
     9     8    10 1   
    10    10    11 1   
    11    10    12 1   
    12    10    13 1   
    13    13    14 2   
    14    13    15 1   
    15    15    16 2   
    16    15    17 1   
    17    17    18 1   
    18    18    19 1   
    19    19    20 1   
    20    20    21 1   
    21    21    22 1   
    22    22    23 1   
    23    23    24 2   
    24    23    25 1   
    25    25    26 1   
    26    26    27 1   
    27    27    28 1   
    28    28    29 2   
    29    28    30 1   
    30    30    31 1   
    31    30    32 1   
    32    32    33 2   
    33    33    34 1   
    34    33    35 1   
    35    35    36 1   
    36    35    37 1   
    37    37    38 1   
    38    38    39 1   
    39    37    40 1   
    40    40    41 2   
    41    40    42 1   
    42    42    43 1   
    43    42    44 1   
    44    44    45 1   
    45    45    46 1   
    46    46    47 1   
    47    46    48 1   
    48    48    49 2   
    49    49    50 1   
    50    50    51 2   
    51    51    52 1   
    52    52    53 2   
    53    53    54 1   
    54    26    55 1   
    55    55    56 1   
    56    56    57 1   
    57    57    58 1   
    58    58    59 1   
    59    59    60 1   
    60    60    61 1   
    61    61    62 1   
    62    62    63 1   
    63    63    64 1   
    64    60    65 1   
    65    65    66 1   
    66    66    67 1   
    67    65    68 1   
    68    53     3 1   
    69    68    57 1   
    70    12     5 1   
    71    22    17 1   
    72    55    21 1   
    73     1    69 1   
    74     1    70 1   
    75     1    71 1   
    76     3    72 1   
    77     4    73 1   
    78     4    74 1   
    79     5    75 1   
    80     6    76 1   
    81     6    77 1   
    82     7    78 1   
    83     7    79 1   
    84     8    80 1   
    85     9    81 1   
    86     9    82 1   
    87     9    83 1   
    88    11    84 1   
    89    18    85 1   
    90    18    86 1   
    91    19    87 1   
    92    19    88 1   
    93    20    89 1   
    94    20    90 1   
    95    21    91 1   
    96    22    92 1   
    97    26    93 1   
    98    27    94 1   
    99    27    95 1   
   100    30    96 1   
   101    31    97 1   
   102    31    98 1   
   103    31    99 1   
   104    32   100 1   
   105    34   101 1   
   106    34   102 1   
   107    34   103 1   
   108    35   104 1   
   109    36   105 1   
   110    37   106 1   
   111    39   107 1   
   112    39   108 1   
   113    39   109 1   
   114    42   110 1   
   115    43   111 1   
   116    43   112 1   
   117    43   113 1   
   118    44   114 1   
   119    44   115 1   
   120    45   116 1   
   121    45   117 1   
   122    46   118 1   
   123    47   119 1   
   124    47   120 1   
   125    47   121 1   
   126    48   122 1   
   127    49   123 1   
   128    50   124 1   
   129    51   125 1   
   130    52   126 1   
   131    54   127 1   
   132    54   128 1   
   133    54   129 1   
   134    55   130 1   
   135    56   131 1   
   136    56   132 1   
   137    57   133 1   
   138    58   134 1   
   139    58   135 1   
   140    59   136 1   
   141    59   137 1   
   142    60   138 1   
   143    62   139 1   
   144    62   140 1   
   145    63   141 1   
   146    63   142 1   
   147    64   143 1   
   148    65   144 1   
   149    67   145 1   
   150    67   146 1   
   151    67   147 1   
   152    68   148 1   
   153    68   149 1   
@<TRIPOS>SUBSTRUCTURE
     1 MOL         1 TEMP              0 ****  ****    0 ROOT
