
     RDKit          3D

149153  0  0  0  0  0  0  0  0999 V2000
   -2.1075   -0.3008   -7.6568 C   0  0  0  0  0  0  0  0  0  0  0  0
   -1.9704   -0.8888   -6.3683 O   0  0  0  0  0  0  0  0  0  0  0  0
   -2.9562   -0.4221   -5.4399 C   0  0  1  0  0  0  0  0  0  0  0  0
   -3.1061   -1.4641   -4.3207 C   0  0  0  0  0  0  0  0  0  0  0  0
   -3.1579   -2.9246   -4.7781 C   0  0  2  0  0  0  0  0  0  0  0  0
   -4.3462   -3.2420   -5.6773 C   0  0  0  0  0  0  0  0  0  0  0  0
   -4.3707   -4.7349   -5.9890 C   0  0  0  0  0  0  0  0  0  0  0  0
   -4.3252   -5.5819   -4.7034 C   0  0  1  0  0  0  0  0  0  0  0  0
   -4.2187   -7.0623   -5.0890 C   0  0  0  0  0  0  0  0  0  0  0  0
   -3.1838   -5.1163   -3.7651 C   0  0  1  0  0  0  0  0  0  0  0  0
   -1.9267   -5.4551   -4.3280 O   0  0  0  0  0  0  0  0  0  0  0  0
   -3.2644   -3.6966   -3.5763 O   0  0  0  0  0  0  0  0  0  0  0  0
   -3.3697   -5.6724   -2.3363 C   0  0  0  0  0  0  0  0  0  0  0  0
   -4.1741   -6.5209   -1.9714 O   0  0  0  0  0  0  0  0  0  0  0  0
   -2.4255   -5.0460   -1.3257 C   0  0  0  0  0  0  0  0  0  0  0  0
   -1.2226   -5.2273   -1.5065 O   0  0  0  0  0  0  0  0  0  0  0  0
   -2.9632   -4.2469   -0.3141 N   0  0  0  0  0  0  0  0  0  0  0  0
   -4.3971   -4.1059   -0.0864 C   0  0  0  0  0  0  0  0  0  0  0  0
   -4.7560   -2.6629    0.2236 C   0  0  0  0  0  0  0  0  0  0  0  0
   -3.9675   -2.1740    1.4273 C   0  0  0  0  0  0  0  0  0  0  0  0
   -2.4444   -2.2930    1.2006 C   0  0  0  0  0  0  0  0  0  0  0  0
   -2.0388   -3.6846    0.6852 C   0  0  1  0  0  0  0  0  0  0  0  0
   -1.7552   -4.6386    1.8474 C   0  0  0  0  0  0  0  0  0  0  0  0
   -2.2629   -5.7471    1.9679 O   0  0  0  0  0  0  0  0  0  0  0  0
   -0.8483   -4.1747    2.7504 O   0  0  0  0  0  0  0  0  0  0  0  0
   -0.4580   -2.7731    2.7901 C   0  0  1  0  0  0  0  0  0  0  0  0
    0.7844   -2.5484    1.9212 C   0  0  0  0  0  0  0  0  0  0  0  0
    2.0465   -3.0484    2.6198 C   0  0  0  0  0  0  0  0  0  0  0  0
    2.1766   -2.9742    3.8432 O   0  0  0  0  0  0  0  0  0  0  0  0
    3.1533   -3.6115    1.7160 C   0  0  2  0  0  0  0  0  0  0  0  0
    4.2845   -4.2724    2.5005 C   0  0  0  0  0  0  0  0  0  0  0  0
    3.6607   -2.5925    0.7203 C   0  0  0  0  0  0  0  0  0  0  0  0
    4.1510   -1.3466    0.9185 C   0  0  0  0  0  0  0  0  0  0  0  0
    4.3215   -0.7178    2.2807 C   0  0  0  0  0  0  0  0  0  0  0  0
    4.6189   -0.4437   -0.2333 C   0  0  1  0  0  0  0  0  0  0  0  0
    4.6911   -1.2048   -1.4548 O   0  0  0  0  0  0  0  0  0  0  0  0
    3.7429    0.8182   -0.5036 C   0  0  1  0  0  0  0  0  0  0  0  0
    2.3428    0.5753   -0.3168 O   0  0  0  0  0  0  0  0  0  0  0  0
    1.7459   -0.1145   -1.4085 C   0  0  0  0  0  0  0  0  0  0  0  0
    4.2225    2.0236    0.3317 C   0  0  0  0  0  0  0  0  0  0  0  0
    5.3048    2.0130    0.9286 O   0  0  0  0  0  0  0  0  0  0  0  0
    3.3635    3.2926    0.3757 C   0  0  2  0  0  0  0  0  0  0  0  0
    2.1928    3.1122    1.3350 C   0  0  0  0  0  0  0  0  0  0  0  0
    2.9490    3.7547   -1.0283 C   0  0  0  0  0  0  0  0  0  0  0  0
    2.2443    5.1211   -1.0401 C   0  0  0  0  0  0  0  0  0  0  0  0
    1.9601    5.6681   -2.4601 C   0  0  2  0  0  0  0  0  0  0  0  0
    1.3049    7.0497   -2.3587 C   0  0  0  0  0  0  0  0  0  0  0  0
    1.1781    4.6653   -3.2792 C   0  0  0  0  0  0  0  0  0  0  0  0
   -0.1292    4.6859   -3.5865 C   0  0  0  0  0  0  0  0  0  0  0  0
   -0.7845    3.6106   -4.3025 C   0  0  0  0  0  0  0  0  0  0  0  0
   -0.6380    2.3233   -3.9552 C   0  0  0  0  0  0  0  0  0  0  0  0
   -1.2244    1.1887   -4.6233 C   0  0  0  0  0  0  0  0  0  0  0  0
   -2.5299    0.9057   -4.8113 C   0  0  0  0  0  0  0  0  0  0  0  0
   -3.6715    1.7815   -4.3694 C   0  0  0  0  0  0  0  0  0  0  0  0
   -1.6955   -1.8942    2.5066 C   0  0  1  0  0  0  0  0  0  0  0  0
   -1.4710   -0.3615    2.5640 C   0  0  0  0  0  0  0  0  0  0  0  0
   -1.0131    0.1695    3.9473 C   0  0  2  0  0  0  0  0  0  0  0  0
   -1.7326    1.4864    4.3164 C   0  0  0  0  0  0  0  0  0  0  0  0
   -0.9181    2.7149    3.9296 C   0  0  0  0  0  0  0  0  0  0  0  0
    0.4101    2.7651    4.6982 C   0  0  1  0  0  0  0  0  0  0  0  0
    0.2006    3.4705    5.9377 O   0  0  0  0  0  0  0  0  0  0  0  0
    0.4956    4.8636    5.8556 C   0  0  0  0  0  0  0  0  0  0  0  0
    1.9911    5.1383    6.0098 C   0  0  0  0  0  0  0  0  0  0  0  0
    2.2474    6.5388    6.0086 O   0  0  0  0  0  0  0  0  0  0  0  0
    0.9589    1.3608    5.0509 C   0  0  2  0  0  0  0  0  0  0  0  0
    2.3940    1.4577    5.0742 O   0  0  0  0  0  0  0  0  0  0  0  0
    3.0141    0.4427    5.8536 C   0  0  0  0  0  0  0  0  0  0  0  0
    0.5190    0.3302    4.0088 C   0  0  0  0  0  0  0  0  0  0  0  0
   -2.0290    0.7892   -7.6047 H   0  0  0  0  0  0  0  0  0  0  0  0
   -1.3017   -0.6771   -8.2921 H   0  0  0  0  0  0  0  0  0  0  0  0
   -3.0636   -0.5878   -8.1047 H   0  0  0  0  0  0  0  0  0  0  0  0
   -3.9151   -0.3091   -5.9617 H   0  0  0  0  0  0  0  0  0  0  0  0
   -2.2570   -1.3857   -3.6256 H   0  0  0  0  0  0  0  0  0  0  0  0
   -3.9892   -1.2338   -3.7092 H   0  0  0  0  0  0  0  0  0  0  0  0
   -2.2159   -3.1766   -5.2798 H   0  0  0  0  0  0  0  0  0  0  0  0
   -4.2992   -2.6731   -6.6115 H   0  0  0  0  0  0  0  0  0  0  0  0
   -5.2813   -2.9732   -5.1702 H   0  0  0  0  0  0  0  0  0  0  0  0
   -5.2738   -4.9733   -6.5640 H   0  0  0  0  0  0  0  0  0  0  0  0
   -3.5141   -4.9802   -6.6303 H   0  0  0  0  0  0  0  0  0  0  0  0
   -5.2832   -5.4291   -4.1867 H   0  0  0  0  0  0  0  0  0  0  0  0
   -4.2210   -7.7121   -4.2098 H   0  0  0  0  0  0  0  0  0  0  0  0
   -3.3043   -7.2658   -5.6565 H   0  0  0  0  0  0  0  0  0  0  0  0
   -5.0684   -7.3563   -5.7146 H   0  0  0  0  0  0  0  0  0  0  0  0
   -1.2622   -5.3527   -3.6189 H   0  0  0  0  0  0  0  0  0  0  0  0
   -4.9731   -4.4230   -0.9578 H   0  0  0  0  0  0  0  0  0  0  0  0
   -4.6697   -4.7646    0.7455 H   0  0  0  0  0  0  0  0  0  0  0  0
   -4.5359   -2.0283   -0.6438 H   0  0  0  0  0  0  0  0  0  0  0  0
   -5.8297   -2.5809    0.4241 H   0  0  0  0  0  0  0  0  0  0  0  0
   -4.2647   -2.7617    2.3055 H   0  0  0  0  0  0  0  0  0  0  0  0
   -4.2393   -1.1332    1.6343 H   0  0  0  0  0  0  0  0  0  0  0  0
   -2.1830   -1.5790    0.4057 H   0  0  0  0  0  0  0  0  0  0  0  0
   -1.0836   -3.5811    0.1641 H   0  0  0  0  0  0  0  0  0  0  0  0
   -0.1991   -2.6025    3.8405 H   0  0  0  0  0  0  0  0  0  0  0  0
    0.7087   -3.0843    0.9735 H   0  0  0  0  0  0  0  0  0  0  0  0
    0.9480   -1.4904    1.7051 H   0  0  0  0  0  0  0  0  0  0  0  0
    2.6670   -4.4142    1.1437 H   0  0  0  0  0  0  0  0  0  0  0  0
    5.0132   -4.7332    1.8243 H   0  0  0  0  0  0  0  0  0  0  0  0
    4.8200   -3.5619    3.1378 H   0  0  0  0  0  0  0  0  0  0  0  0
    3.8911   -5.0591    3.1545 H   0  0  0  0  0  0  0  0  0  0  0  0
    3.5841   -2.9536   -0.3061 H   0  0  0  0  0  0  0  0  0  0  0  0
    5.3456   -0.3471    2.3992 H   0  0  0  0  0  0  0  0  0  0  0  0
    4.1485   -1.4102    3.1044 H   0  0  0  0  0  0  0  0  0  0  0  0
    3.6263    0.1177    2.4066 H   0  0  0  0  0  0  0  0  0  0  0  0
    5.6569   -0.1472   -0.0410 H   0  0  0  0  0  0  0  0  0  0  0  0
    5.3851   -1.8728   -1.3107 H   0  0  0  0  0  0  0  0  0  0  0  0
    3.9059    1.1292   -1.5455 H   0  0  0  0  0  0  0  0  0  0  0  0
    1.9187    0.4189   -2.3479 H   0  0  0  0  0  0  0  0  0  0  0  0
    2.1151   -1.1398   -1.4807 H   0  0  0  0  0  0  0  0  0  0  0  0
    0.6676   -0.1569   -1.2301 H   0  0  0  0  0  0  0  0  0  0  0  0
    4.0139    4.0702    0.7997 H   0  0  0  0  0  0  0  0  0  0  0  0
    1.7934    4.0824    1.6471 H   0  0  0  0  0  0  0  0  0  0  0  0
    2.5078    2.5759    2.2361 H   0  0  0  0  0  0  0  0  0  0  0  0
    1.3706    2.5506    0.8817 H   0  0  0  0  0  0  0  0  0  0  0  0
    2.2887    3.0036   -1.4736 H   0  0  0  0  0  0  0  0  0  0  0  0
    3.8409    3.8045   -1.6652 H   0  0  0  0  0  0  0  0  0  0  0  0
    1.2983    5.0456   -0.4894 H   0  0  0  0  0  0  0  0  0  0  0  0
    2.8666    5.8466   -0.5007 H   0  0  0  0  0  0  0  0  0  0  0  0
    2.9222    5.8099   -2.9710 H   0  0  0  0  0  0  0  0  0  0  0  0
    1.9709    7.7520   -1.8455 H   0  0  0  0  0  0  0  0  0  0  0  0
    1.0955    7.4605   -3.3523 H   0  0  0  0  0  0  0  0  0  0  0  0
    0.3663    7.0148   -1.7954 H   0  0  0  0  0  0  0  0  0  0  0  0
    1.7737    3.8219   -3.6309 H   0  0  0  0  0  0  0  0  0  0  0  0
   -0.7682    5.5154   -3.2968 H   0  0  0  0  0  0  0  0  0  0  0  0
   -1.4409    3.8987   -5.1195 H   0  0  0  0  0  0  0  0  0  0  0  0
    0.0289    2.0595   -3.1360 H   0  0  0  0  0  0  0  0  0  0  0  0
   -0.4835    0.4460   -4.9253 H   0  0  0  0  0  0  0  0  0  0  0  0
   -4.3639    1.2153   -3.7380 H   0  0  0  0  0  0  0  0  0  0  0  0
   -3.3529    2.6492   -3.7867 H   0  0  0  0  0  0  0  0  0  0  0  0
   -4.2230    2.1457   -5.2420 H   0  0  0  0  0  0  0  0  0  0  0  0
   -2.3858   -2.1267    3.3326 H   0  0  0  0  0  0  0  0  0  0  0  0
   -2.4254    0.1128    2.3055 H   0  0  0  0  0  0  0  0  0  0  0  0
   -0.7782   -0.0477    1.7745 H   0  0  0  0  0  0  0  0  0  0  0  0
   -1.3134   -0.5588    4.7122 H   0  0  0  0  0  0  0  0  0  0  0  0
   -2.7294    1.5382    3.8642 H   0  0  0  0  0  0  0  0  0  0  0  0
   -1.9001    1.5053    5.4015 H   0  0  0  0  0  0  0  0  0  0  0  0
   -0.7163    2.6802    2.8518 H   0  0  0  0  0  0  0  0  0  0  0  0
   -1.5111    3.6164    4.1198 H   0  0  0  0  0  0  0  0  0  0  0  0
    1.1467    3.3075    4.0955 H   0  0  0  0  0  0  0  0  0  0  0  0
    0.1051    5.3005    4.9285 H   0  0  0  0  0  0  0  0  0  0  0  0
   -0.0415    5.3593    6.6726 H   0  0  0  0  0  0  0  0  0  0  0  0
    2.5612    4.6882    5.1916 H   0  0  0  0  0  0  0  0  0  0  0  0
    2.3731    4.7043    6.9404 H   0  0  0  0  0  0  0  0  0  0  0  0
    1.8861    6.8977    6.8377 H   0  0  0  0  0  0  0  0  0  0  0  0
    0.6061    1.0680    6.0488 H   0  0  0  0  0  0  0  0  0  0  0  0
    2.6784    0.5010    6.8932 H   0  0  0  0  0  0  0  0  0  0  0  0
    4.0948    0.6081    5.8292 H   0  0  0  0  0  0  0  0  0  0  0  0
    2.8109   -0.5512    5.4472 H   0  0  0  0  0  0  0  0  0  0  0  0
    0.9259    0.6273    3.0337 H   0  0  0  0  0  0  0  0  0  0  0  0
    0.9752   -0.6375    4.2251 H   0  0  0  0  0  0  0  0  0  0  0  0
  1  2  1  0
  2  3  1  0
  3  4  1  0
  4  5  1  0
  5  6  1  0
  6  7  1  0
  7  8  1  0
  8  9  1  0
  8 10  1  0
 10 11  1  6
 10 12  1  0
 10 13  1  0
 13 14  2  0
 13 15  1  0
 15 16  2  0
 15 17  1  0
 17 18  1  0
 18 19  1  0
 19 20  1  0
 20 21  1  0
 21 22  1  0
 22 23  1  0
 23 24  2  0
 23 25  1  0
 25 26  1  0
 26 27  1  0
 27 28  1  0
 28 29  2  0
 28 30  1  0
 30 31  1  0
 30 32  1  0
 32 33  2  0
 33 34  1  0
 33 35  1  0
 35 36  1  0
 35 37  1  0
 37 38  1  0
 38 39  1  0
 37 40  1  0
 40 41  2  0
 40 42  1  0
 42 43  1  0
 42 44  1  0
 44 45  1  0
 45 46  1  0
 46 47  1  0
 46 48  1  0
 48 49  2  0
 49 50  1  0
 50 51  2  0
 51 52  1  0
 52 53  2  0
 53 54  1  0
 26 55  1  0
 55 56  1  0
 56 57  1  0
 57 58  1  0
 58 59  1  0
 59 60  1  0
 60 61  1  0
 61 62  1  0
 62 63  1  0
 63 64  1  0
 60 65  1  0
 65 66  1  0
 66 67  1  0
 65 68  1  0
 53  3  1  0
 68 57  1  0
 12  5  1  0
 22 17  1  0
 55 21  1  0
  1 69  1  0
  1 70  1  0
  1 71  1  0
  3 72  1  6
  4 73  1  0
  4 74  1  0
  5 75  1  6
  6 76  1  0
  6 77  1  0
  7 78  1  0
  7 79  1  0
  8 80  1  1
  9 81  1  0
  9 82  1  0
  9 83  1  0
 11 84  1  0
 18 85  1  0
 18 86  1  0
 19 87  1  0
 19 88  1  0
 20 89  1  0
 20 90  1  0
 21 91  1  0
 22 92  1  6
 26 93  1  1
 27 94  1  0
 27 95  1  0
 30 96  1  6
 31 97  1  0
 31 98  1  0
 31 99  1  0
 32100  1  0
 34101  1  0
 34102  1  0
 34103  1  0
 35104  1  1
 36105  1  0
 37106  1  6
 39107  1  0
 39108  1  0
 39109  1  0
 42110  1  1
 43111  1  0
 43112  1  0
 43113  1  0
 44114  1  0
 44115  1  0
 45116  1  0
 45117  1  0
 46118  1  6
 47119  1  0
 47120  1  0
 47121  1  0
 48122  1  0
 49123  1  0
 50124  1  0
 51125  1  0
 52126  1  0
 54127  1  0
 54128  1  0
 54129  1  0
 55130  1  1
 56131  1  0
 56132  1  0
 57133  1  1
 58134  1  0
 58135  1  0
 59136  1  0
 59137  1  0
 60138  1  6
 62139  1  0
 62140  1  0
 63141  1  0
 63142  1  0
 64143  1  0
 65144  1  1
 67145  1  0
 67146  1  0
 67147  1  0
 68148  1  0
 68149  1  0
M  END
$$$$
