@<TRIPOS>MOLECULE
MOL
   77    82     1     0     0
SMALL
bcc


@<TRIPOS>ATOM
      1 C1          -2.3140    -1.9110     1.1000 ca         1 MOL      -0.123000
      2 C2          -1.1840    -2.4030     1.7320 ca         1 MOL      -0.134000
      3 C3          -0.2690    -1.5110     2.2930 ca         1 MOL      -0.111500
      4 C4          -0.4620    -0.1080     2.2260 ca         1 MOL      -0.158300
      5 C5           0.4420     0.8530     2.7670 ca         1 MOL       0.142100
      6 N1           1.6360     0.4420     3.3810 nu         1 MOL      -0.719600
      7 C6           2.8920     0.5810     2.6480 c3         1 MOL       0.171300
      8 C7           3.1690    -0.6620     1.8020 c3         1 MOL      -0.099900
      9 C8           4.4850    -0.5420     1.0310 c3         1 MOL      -0.075400
     10 C9           4.8100    -1.7740     0.1740 c3         1 MOL      -0.078400
     11 C10          3.7000    -2.2300    -0.7790 c3         1 MOL      -0.075400
     12 C11          3.3090    -1.1740    -1.8190 c3         1 MOL      -0.099900
     13 C12          2.0070    -1.5270    -2.5430 c3         1 MOL       0.171300
     14 N2           0.8890    -1.3950    -1.6160 nu         1 MOL      -0.719600
     15 C13         -0.3990    -1.6730    -2.0990 ca         1 MOL       0.142100
     16 C14         -1.2460    -0.6090    -2.4690 ca         1 MOL      -0.210100
     17 C15         -2.5250    -0.9250    -2.9320 ca         1 MOL       0.451600
     18 N3          -2.9600    -2.1970    -3.0960 nb         1 MOL      -0.681500
     19 C16         -2.1470    -3.2080    -2.7620 ca         1 MOL       0.408100
     20 C17         -2.6180    -4.5050    -2.9160 ca         1 MOL      -0.170800
     21 C18         -1.8530    -5.6180    -2.5620 ca         1 MOL      -0.123000
     22 C19         -0.5840    -5.4360    -2.0320 ca         1 MOL      -0.134000
     23 C20         -0.0900    -4.1430    -1.8730 ca         1 MOL      -0.111500
     24 C21         -0.8510    -3.0090    -2.2480 ca         1 MOL      -0.158300
     25 C22         -3.5080     0.1440    -3.3320 c3         1 MOL      -0.133200
     26 C23         -3.1850     1.5100    -2.7380 c3         1 MOL      -0.079400
     27 C24         -1.7240     1.8460    -2.9910 c3         1 MOL      -0.077400
     28 C25         -0.8130     0.8300    -2.3040 c3         1 MOL      -0.026100
     29 C26          0.1450     2.2270     2.6400 ca         1 MOL      -0.210100
     30 C27         -1.0350     2.5810     1.9800 ca         1 MOL       0.451600
     31 N4          -1.8860     1.6780     1.4420 nb         1 MOL      -0.681500
     32 C28         -1.6160     0.3730     1.5760 ca         1 MOL       0.408100
     33 C29         -2.5180    -0.5320     1.0320 ca         1 MOL      -0.170800
     34 C30         -1.4280     4.0210     1.7730 c3         1 MOL      -0.133200
     35 C31         -0.7750     4.9770     2.7630 c3         1 MOL      -0.079400
     36 C32          0.7200     4.7040     2.8310 c3         1 MOL      -0.077400
     37 C33          0.9800     3.2830     3.3300 c3         1 MOL      -0.026100
     38 H1          -3.0290    -2.5890     0.6420 ha         1 MOL       0.135000
     39 H2          -1.0070    -3.4740     1.7780 ha         1 MOL       0.134500
     40 H3           0.6100    -1.9250     2.7770 ha         1 MOL       0.136000
     41 H4           1.5610    -0.3650     3.9900 hn         1 MOL       0.381300
     42 H5           3.6970     0.7110     3.3800 h1         1 MOL       0.047700
     43 H6           2.8940     1.4700     2.0080 h1         1 MOL       0.047700
     44 H7           3.1940    -1.5520     2.4430 hc         1 MOL       0.046450
     45 H8           2.3420    -0.7940     1.0980 hc         1 MOL       0.046450
     46 H9           5.3080    -0.3900     1.7410 hc         1 MOL       0.043950
     47 H10          4.4620     0.3520     0.3980 hc         1 MOL       0.043950
     48 H11          5.7200    -1.5690    -0.4030 hc         1 MOL       0.039200
     49 H12          5.0500    -2.6100     0.8430 hc         1 MOL       0.039200
     50 H13          2.8280    -2.5450    -0.1940 hc         1 MOL       0.043950
     51 H14          4.0420    -3.1300    -1.3060 hc         1 MOL       0.043950
     52 H15          3.1960    -0.1880    -1.3560 hc         1 MOL       0.046450
     53 H16          4.1180    -1.0880    -2.5550 hc         1 MOL       0.046450
     54 H17          1.8700    -0.8350    -3.3820 h1         1 MOL       0.047700
     55 H18          2.0720    -2.5400    -2.9550 h1         1 MOL       0.047700
     56 H19          0.9320    -0.6260    -0.9540 hn         1 MOL       0.381300
     57 H20         -3.6180    -4.6520    -3.3180 ha         1 MOL       0.149000
     58 H21         -2.2560    -6.6190    -2.6940 ha         1 MOL       0.135000
     59 H22          0.0180    -6.2920    -1.7390 ha         1 MOL       0.134500
     60 H23          0.8960    -4.0100    -1.4350 ha         1 MOL       0.136000
     61 H24         -4.5170    -0.1520    -3.0240 hc         1 MOL       0.064700
     62 H25         -3.5060     0.2110    -4.4270 hc         1 MOL       0.064700
     63 H26         -3.8310     2.2720    -3.1890 hc         1 MOL       0.047200
     64 H27         -3.3850     1.5120    -1.6600 hc         1 MOL       0.047200
     65 H28         -1.4950     2.8530    -2.6230 hc         1 MOL       0.043450
     66 H29         -1.5290     1.8470    -4.0710 hc         1 MOL       0.043450
     67 H30          0.2000     0.9670    -2.7000 hc         1 MOL       0.052200
     68 H31         -0.7800     1.0560    -1.2320 hc         1 MOL       0.052200
     69 H32         -3.4020    -0.1540     0.5260 ha         1 MOL       0.149000
     70 H33         -2.5180     4.1200     1.8430 hc         1 MOL       0.064700
     71 H34         -1.1420     4.3010     0.7510 hc         1 MOL       0.064700
     72 H35         -1.2200     4.8510     3.7580 hc         1 MOL       0.047200
     73 H36         -0.9580     6.0120     2.4550 hc         1 MOL       0.047200
     74 H37          1.2060     5.4250     3.4990 hc         1 MOL       0.043450
     75 H38          1.1640     4.8370     1.8360 hc         1 MOL       0.043450
     76 H39          2.0500     3.0890     3.2160 hc         1 MOL       0.052200
     77 H40          0.7530     3.2370     4.4030 hc         1 MOL       0.052200
@<TRIPOS>BOND
     1     1     2 ar  
     2     2     3 ar  
     3     3     4 ar  
     4     4     5 ar  
     5     5     6 1   
     6     6     7 1   
     7     7     8 1   
     8     8     9 1   
     9     9    10 1   
    10    10    11 1   
    11    11    12 1   
    12    12    13 1   
    13    13    14 1   
    14    14    15 1   
    15    15    16 ar  
    16    16    17 ar  
    17    17    18 ar  
    18    18    19 ar  
    19    19    20 ar  
    20    20    21 ar  
    21    21    22 ar  
    22    22    23 ar  
    23    23    24 ar  
    24    17    25 1   
    25    25    26 1   
    26    26    27 1   
    27    27    28 1   
    28     5    29 ar  
    29    29    30 ar  
    30    30    31 ar  
    31    31    32 ar  
    32    32    33 ar  
    33    30    34 1   
    34    34    35 1   
    35    35    36 1   
    36    36    37 1   
    37    33     1 ar  
    38    32     4 ar  
    39    24    15 ar  
    40    37    29 1   
    41    28    16 1   
    42    24    19 ar  
    43     1    38 1   
    44     2    39 1   
    45     3    40 1   
    46     6    41 1   
    47     7    42 1   
    48     7    43 1   
    49     8    44 1   
    50     8    45 1   
    51     9    46 1   
    52     9    47 1   
    53    10    48 1   
    54    10    49 1   
    55    11    50 1   
    56    11    51 1   
    57    12    52 1   
    58    12    53 1   
    59    13    54 1   
    60    13    55 1   
    61    14    56 1   
    62    20    57 1   
    63    21    58 1   
    64    22    59 1   
    65    23    60 1   
    66    25    61 1   
    67    25    62 1   
    68    26    63 1   
    69    26    64 1   
    70    27    65 1   
    71    27    66 1   
    72    28    67 1   
    73    28    68 1   
    74    33    69 1   
    75    34    70 1   
    76    34    71 1   
    77    35    72 1   
    78    35    73 1   
    79    36    74 1   
    80    36    75 1   
    81    37    76 1   
    82    37    77 1   
@<TRIPOS>SUBSTRUCTURE
     1 MOL         1 TEMP              0 ****  ****    0 ROOT
