
     RDKit          3D

 77 82  0  0  0  0  0  0  0  0999 V2000
   -2.3139   -1.9105    1.1000 C   0  0  0  0  0  0  0  0  0  0  0  0
   -1.1836   -2.4026    1.7321 C   0  0  0  0  0  0  0  0  0  0  0  0
   -0.2694   -1.5114    2.2934 C   0  0  0  0  0  0  0  0  0  0  0  0
   -0.4619   -0.1078    2.2263 C   0  0  0  0  0  0  0  0  0  0  0  0
    0.4415    0.8534    2.7667 C   0  0  0  0  0  0  0  0  0  0  0  0
    1.6363    0.4424    3.3808 N   0  0  0  0  0  0  0  0  0  0  0  0
    2.8918    0.5810    2.6484 C   0  0  0  0  0  0  0  0  0  0  0  0
    3.1689   -0.6617    1.8025 C   0  0  0  0  0  0  0  0  0  0  0  0
    4.4852   -0.5420    1.0313 C   0  0  0  0  0  0  0  0  0  0  0  0
    4.8098   -1.7735    0.1742 C   0  0  0  0  0  0  0  0  0  0  0  0
    3.6995   -2.2300   -0.7788 C   0  0  0  0  0  0  0  0  0  0  0  0
    3.3094   -1.1739   -1.8195 C   0  0  0  0  0  0  0  0  0  0  0  0
    2.0066   -1.5270   -2.5427 C   0  0  0  0  0  0  0  0  0  0  0  0
    0.8895   -1.3954   -1.6161 N   0  0  0  0  0  0  0  0  0  0  0  0
   -0.3991   -1.6728   -2.0993 C   0  0  0  0  0  0  0  0  0  0  0  0
   -1.2458   -0.6088   -2.4687 C   0  0  0  0  0  0  0  0  0  0  0  0
   -2.5245   -0.9251   -2.9320 C   0  0  0  0  0  0  0  0  0  0  0  0
   -2.9604   -2.1967   -3.0963 N   0  0  0  0  0  0  0  0  0  0  0  0
   -2.1471   -3.2075   -2.7617 C   0  0  0  0  0  0  0  0  0  0  0  0
   -2.6183   -4.5051   -2.9158 C   0  0  0  0  0  0  0  0  0  0  0  0
   -1.8528   -5.6183   -2.5618 C   0  0  0  0  0  0  0  0  0  0  0  0
   -0.5843   -5.4364   -2.0320 C   0  0  0  0  0  0  0  0  0  0  0  0
   -0.0900   -4.1431   -1.8726 C   0  0  0  0  0  0  0  0  0  0  0  0
   -0.8510   -3.0094   -2.2484 C   0  0  0  0  0  0  0  0  0  0  0  0
   -3.5078    0.1443   -3.3323 C   0  0  0  0  0  0  0  0  0  0  0  0
   -3.1850    1.5104   -2.7384 C   0  0  0  0  0  0  0  0  0  0  0  0
   -1.7235    1.8456   -2.9907 C   0  0  0  0  0  0  0  0  0  0  0  0
   -0.8127    0.8297   -2.3038 C   0  0  0  0  0  0  0  0  0  0  0  0
    0.1455    2.2265    2.6401 C   0  0  0  0  0  0  0  0  0  0  0  0
   -1.0350    2.5813    1.9805 C   0  0  0  0  0  0  0  0  0  0  0  0
   -1.8859    1.6776    1.4425 N   0  0  0  0  0  0  0  0  0  0  0  0
   -1.6163    0.3733    1.5762 C   0  0  0  0  0  0  0  0  0  0  0  0
   -2.5177   -0.5323    1.0323 C   0  0  0  0  0  0  0  0  0  0  0  0
   -1.4282    4.0213    1.7728 C   0  0  0  0  0  0  0  0  0  0  0  0
   -0.7749    4.9766    2.7633 C   0  0  0  0  0  0  0  0  0  0  0  0
    0.7195    4.7043    2.8310 C   0  0  0  0  0  0  0  0  0  0  0  0
    0.9802    3.2834    3.3296 C   0  0  0  0  0  0  0  0  0  0  0  0
   -3.0293   -2.5886    0.6420 H   0  0  0  0  0  0  0  0  0  0  0  0
   -1.0066   -3.4735    1.7782 H   0  0  0  0  0  0  0  0  0  0  0  0
    0.6098   -1.9252    2.7775 H   0  0  0  0  0  0  0  0  0  0  0  0
    1.5608   -0.3646    3.9904 H   0  0  0  0  0  0  0  0  0  0  0  0
    3.6975    0.7107    3.3797 H   0  0  0  0  0  0  0  0  0  0  0  0
    2.8938    1.4701    2.0077 H   0  0  0  0  0  0  0  0  0  0  0  0
    3.1942   -1.5518    2.4427 H   0  0  0  0  0  0  0  0  0  0  0  0
    2.3422   -0.7945    1.0983 H   0  0  0  0  0  0  0  0  0  0  0  0
    5.3082   -0.3903    1.7408 H   0  0  0  0  0  0  0  0  0  0  0  0
    4.4616    0.3525    0.3984 H   0  0  0  0  0  0  0  0  0  0  0  0
    5.7198   -1.5687   -0.4026 H   0  0  0  0  0  0  0  0  0  0  0  0
    5.0495   -2.6095    0.8431 H   0  0  0  0  0  0  0  0  0  0  0  0
    2.8284   -2.5446   -0.1940 H   0  0  0  0  0  0  0  0  0  0  0  0
    4.0415   -3.1296   -1.3062 H   0  0  0  0  0  0  0  0  0  0  0  0
    3.1964   -0.1880   -1.3564 H   0  0  0  0  0  0  0  0  0  0  0  0
    4.1179   -1.0881   -2.5553 H   0  0  0  0  0  0  0  0  0  0  0  0
    1.8698   -0.8352   -3.3823 H   0  0  0  0  0  0  0  0  0  0  0  0
    2.0720   -2.5397   -2.9549 H   0  0  0  0  0  0  0  0  0  0  0  0
    0.9320   -0.6262   -0.9535 H   0  0  0  0  0  0  0  0  0  0  0  0
   -3.6180   -4.6521   -3.3182 H   0  0  0  0  0  0  0  0  0  0  0  0
   -2.2560   -6.6185   -2.6937 H   0  0  0  0  0  0  0  0  0  0  0  0
    0.0181   -6.2916   -1.7390 H   0  0  0  0  0  0  0  0  0  0  0  0
    0.8962   -4.0104   -1.4347 H   0  0  0  0  0  0  0  0  0  0  0  0
   -4.5174   -0.1520   -3.0244 H   0  0  0  0  0  0  0  0  0  0  0  0
   -3.5062    0.2106   -4.4274 H   0  0  0  0  0  0  0  0  0  0  0  0
   -3.8314    2.2719   -3.1886 H   0  0  0  0  0  0  0  0  0  0  0  0
   -3.3855    1.5119   -1.6598 H   0  0  0  0  0  0  0  0  0  0  0  0
   -1.4949    2.8526   -2.6235 H   0  0  0  0  0  0  0  0  0  0  0  0
   -1.5292    1.8471   -4.0709 H   0  0  0  0  0  0  0  0  0  0  0  0
    0.1999    0.9669   -2.7002 H   0  0  0  0  0  0  0  0  0  0  0  0
   -0.7798    1.0555   -1.2324 H   0  0  0  0  0  0  0  0  0  0  0  0
   -3.4024   -0.1536    0.5256 H   0  0  0  0  0  0  0  0  0  0  0  0
   -2.5178    4.1198    1.8432 H   0  0  0  0  0  0  0  0  0  0  0  0
   -1.1421    4.3013    0.7512 H   0  0  0  0  0  0  0  0  0  0  0  0
   -1.2201    4.8510    3.7583 H   0  0  0  0  0  0  0  0  0  0  0  0
   -0.9582    6.0120    2.4552 H   0  0  0  0  0  0  0  0  0  0  0  0
    1.2056    5.4246    3.4988 H   0  0  0  0  0  0  0  0  0  0  0  0
    1.1639    4.8369    1.8362 H   0  0  0  0  0  0  0  0  0  0  0  0
    2.0496    3.0889    3.2164 H   0  0  0  0  0  0  0  0  0  0  0  0
    0.7535    3.2368    4.4027 H   0  0  0  0  0  0  0  0  0  0  0  0
  1  2  2  0
  2  3  1  0
  3  4  2  0
  4  5  1  0
  5  6  1  0
  6  7  1  0
  7  8  1  0
  8  9  1  0
  9 10  1  0
 10 11  1  0
 11 12  1  0
 12 13  1  0
 13 14  1  0
 14 15  1  0
 15 16  2  0
 16 17  1  0
 17 18  2  0
 18 19  1  0
 19 20  2  0
 20 21  1  0
 21 22  2  0
 22 23  1  0
 23 24  2  0
 17 25  1  0
 25 26  1  0
 26 27  1  0
 27 28  1  0
  5 29  2  0
 29 30  1  0
 30 31  2  0
 31 32  1  0
 32 33  2  0
 30 34  1  0
 34 35  1  0
 35 36  1  0
 36 37  1  0
 33  1  1  0
 32  4  1  0
 24 15  1  0
 37 29  1  0
 28 16  1  0
 24 19  1  0
  1 38  1  0
  2 39  1  0
  3 40  1  0
  6 41  1  0
  7 42  1  0
  7 43  1  0
  8 44  1  0
  8 45  1  0
  9 46  1  0
  9 47  1  0
 10 48  1  0
 10 49  1  0
 11 50  1  0
 11 51  1  0
 12 52  1  0
 12 53  1  0
 13 54  1  0
 13 55  1  0
 14 56  1  0
 20 57  1  0
 21 58  1  0
 22 59  1  0
 23 60  1  0
 25 61  1  0
 25 62  1  0
 26 63  1  0
 26 64  1  0
 27 65  1  0
 27 66  1  0
 28 67  1  0
 28 68  1  0
 33 69  1  0
 34 70  1  0
 34 71  1  0
 35 72  1  0
 35 73  1  0
 36 74  1  0
 36 75  1  0
 37 76  1  0
 37 77  1  0
M  END
$$$$
