
     RDKit          3D

 47 48  0  0  0  0  0  0  0  0999 V2000
   -3.9227   -0.1677   -0.7105 C   0  0  0  0  0  0  0  0  0  0  0  0
   -2.8714    0.7192   -0.3539 O   0  0  0  0  0  0  0  0  0  0  0  0
   -3.2742    2.0870   -0.4529 C   0  0  0  0  0  0  0  0  0  0  0  0
   -2.1101    3.0032   -0.0719 C   0  0  0  0  0  0  0  0  0  0  0  0
   -1.8832    2.9353    1.3413 O   0  0  0  0  0  0  0  0  0  0  0  0
   -0.9773    3.9502    1.7841 C   0  0  0  0  0  0  0  0  0  0  0  0
   -0.7353    3.7794    3.2854 C   0  0  0  0  0  0  0  0  0  0  0  0
    0.0028    2.5930    3.6051 O   0  0  0  0  0  0  0  0  0  0  0  0
    1.4080    2.7129    3.4136 C   0  0  0  0  0  0  0  0  0  0  0  0
    1.9343    2.1168    2.1027 C   0  0  0  0  0  0  0  0  0  0  0  0
    3.0361    2.4369    1.6660 O   0  0  0  0  0  0  0  0  0  0  0  0
    1.0541    1.2065    1.5514 N   0  0  0  0  0  0  0  0  0  0  0  0
    1.2320    0.4125    0.4053 C   0  0  0  0  0  0  0  0  0  0  0  0
    2.4003    0.3958   -0.3611 C   0  0  0  0  0  0  0  0  0  0  0  0
    2.4968   -0.4221   -1.4932 C   0  0  0  0  0  0  0  0  0  0  0  0
    1.4185   -1.2311   -1.8561 C   0  0  0  0  0  0  0  0  0  0  0  0
    1.5128   -2.2518   -3.3015 S   0  0  0  0  0  0  0  0  0  0  0  0
    2.7523   -1.9440   -3.9875 O   0  0  0  0  0  0  0  0  0  0  0  0
    0.2511   -2.1817   -4.0044 O   0  0  0  0  0  0  0  0  0  0  0  0
    1.7626   -3.7773   -2.6352 N   0  0  0  0  0  0  0  0  0  0  0  0
    0.6134   -4.6416   -2.7840 C   0  0  0  0  0  0  0  0  0  0  0  0
   -0.4695   -4.4945   -2.0575 N   0  0  0  0  0  0  0  0  0  0  0  0
   -1.4159   -5.4611   -2.3451 N   0  0  0  0  0  0  0  0  0  0  0  0
   -0.9851   -6.3040   -3.2596 C   0  0  0  0  0  0  0  0  0  0  0  0
    0.6058   -5.9954   -3.8253 S   0  0  0  0  0  0  0  0  0  0  0  0
    0.2429   -1.2180   -1.1058 C   0  0  0  0  0  0  0  0  0  0  0  0
    0.1601   -0.4046    0.0267 C   0  0  0  0  0  0  0  0  0  0  0  0
   -3.5567   -1.1929   -0.6095 H   0  0  0  0  0  0  0  0  0  0  0  0
   -4.2250   -0.0050   -1.7495 H   0  0  0  0  0  0  0  0  0  0  0  0
   -4.7794   -0.0351   -0.0429 H   0  0  0  0  0  0  0  0  0  0  0  0
   -3.5755    2.2933   -1.4858 H   0  0  0  0  0  0  0  0  0  0  0  0
   -4.1229    2.2586    0.2189 H   0  0  0  0  0  0  0  0  0  0  0  0
   -1.1941    2.6988   -0.5896 H   0  0  0  0  0  0  0  0  0  0  0  0
   -2.3635    4.0331   -0.3472 H   0  0  0  0  0  0  0  0  0  0  0  0
   -0.0429    3.8797    1.2196 H   0  0  0  0  0  0  0  0  0  0  0  0
   -1.4325    4.9303    1.6034 H   0  0  0  0  0  0  0  0  0  0  0  0
   -0.2329    4.6583    3.7045 H   0  0  0  0  0  0  0  0  0  0  0  0
   -1.7012    3.6800    3.7929 H   0  0  0  0  0  0  0  0  0  0  0  0
    1.7411    3.7538    3.4919 H   0  0  0  0  0  0  0  0  0  0  0  0
    1.8882    2.1484    4.2206 H   0  0  0  0  0  0  0  0  0  0  0  0
    0.1521    1.1433    2.0245 H   0  0  0  0  0  0  0  0  0  0  0  0
    3.2573    1.0112   -0.1046 H   0  0  0  0  0  0  0  0  0  0  0  0
    3.4141   -0.4131   -2.0778 H   0  0  0  0  0  0  0  0  0  0  0  0
    2.6265   -4.1655   -3.0065 H   0  0  0  0  0  0  0  0  0  0  0  0
   -1.5841   -7.1290   -3.6192 H   0  0  0  0  0  0  0  0  0  0  0  0
   -0.6122   -1.8284   -1.3897 H   0  0  0  0  0  0  0  0  0  0  0  0
   -0.7638   -0.4073    0.6021 H   0  0  0  0  0  0  0  0  0  0  0  0
  1  2  1  0
  2  3  1  0
  3  4  1  0
  4  5  1  0
  5  6  1  0
  6  7  1  0
  7  8  1  0
  8  9  1  0
  9 10  1  0
 10 11  2  0
 10 12  1  0
 12 13  1  0
 13 14  2  0
 14 15  1  0
 15 16  2  0
 16 17  1  0
 17 18  2  0
 17 19  2  0
 17 20  1  0
 20 21  1  0
 21 22  2  0
 22 23  1  0
 23 24  2  0
 24 25  1  0
 16 26  1  0
 26 27  2  0
 27 13  1  0
 25 21  1  0
  1 28  1  0
  1 29  1  0
  1 30  1  0
  3 31  1  0
  3 32  1  0
  4 33  1  0
  4 34  1  0
  6 35  1  0
  6 36  1  0
  7 37  1  0
  7 38  1  0
  9 39  1  0
  9 40  1  0
 12 41  1  0
 14 42  1  0
 15 43  1  0
 20 44  1  0
 24 45  1  0
 26 46  1  0
 27 47  1  0
M  END
$$$$
