@<TRIPOS>MOLECULE
MOL
   47    48     1     0     0
SMALL
bcc


@<TRIPOS>ATOM
      1 C1          -3.9230    -0.1680    -0.7110 c3         1 MOL       0.112700
      2 O1          -2.8710     0.7190    -0.3540 os         1 MOL      -0.432600
      3 C2          -3.2740     2.0870    -0.4530 c3         1 MOL       0.121400
      4 C3          -2.1100     3.0030    -0.0720 c3         1 MOL       0.121400
      5 O2          -1.8830     2.9350     1.3410 os         1 MOL      -0.431600
      6 C4          -0.9770     3.9500     1.7840 c3         1 MOL       0.087400
      7 C5          -0.7350     3.7790     3.2850 c3         1 MOL       0.119400
      8 O3           0.0030     2.5930     3.6050 os         1 MOL      -0.404600
      9 C6           1.4080     2.7130     3.4140 c3         1 MOL       0.050400
     10 C7           1.9340     2.1170     2.1030 c          1 MOL       0.643100
     11 O4           3.0360     2.4370     1.6660 o          1 MOL      -0.588100
     12 N1           1.0540     1.2060     1.5510 ns         1 MOL      -0.461100
     13 C8           1.2320     0.4120     0.4050 ca         1 MOL       0.150600
     14 C9           2.4000     0.3960    -0.3610 ca         1 MOL      -0.209500
     15 C10          2.4970    -0.4220    -1.4930 ca         1 MOL       0.029000
     16 C11          1.4190    -1.2310    -1.8560 ca         1 MOL      -0.463500
     17 S1           1.5130    -2.2520    -3.3010 sy         1 MOL       1.529200
     18 O5           2.7520    -1.9440    -3.9870 o          1 MOL      -0.641800
     19 O6           0.2510    -2.1820    -4.0040 o          1 MOL      -0.641800
     20 N2           1.7630    -3.7770    -2.6350 nu         1 MOL      -0.819800
     21 C12          0.6130    -4.6420    -2.7840 cc         1 MOL       0.653300
     22 N3          -0.4690    -4.4950    -2.0580 nd         1 MOL      -0.395000
     23 N4          -1.4160    -5.4610    -2.3450 nd         1 MOL      -0.284000
     24 C13         -0.9850    -6.3040    -3.2600 cc         1 MOL       0.312300
     25 S2           0.6060    -5.9950    -3.8250 ss         1 MOL      -0.218800
     26 C14          0.2430    -1.2180    -1.1060 ca         1 MOL       0.029000
     27 C15          0.1600    -0.4050     0.0270 ca         1 MOL      -0.209500
     28 H1          -3.5570    -1.1930    -0.6100 h1         1 MOL       0.041367
     29 H2          -4.2250    -0.0050    -1.7500 h1         1 MOL       0.041367
     30 H3          -4.7790    -0.0350    -0.0430 h1         1 MOL       0.041367
     31 H4          -3.5750     2.2930    -1.4860 h1         1 MOL       0.045700
     32 H5          -4.1230     2.2590     0.2190 h1         1 MOL       0.045700
     33 H6          -1.1940     2.6990    -0.5900 h1         1 MOL       0.048200
     34 H7          -2.3640     4.0330    -0.3470 h1         1 MOL       0.048200
     35 H8          -0.0430     3.8800     1.2200 h1         1 MOL       0.041200
     36 H9          -1.4330     4.9300     1.6030 h1         1 MOL       0.041200
     37 H10         -0.2330     4.6580     3.7040 h1         1 MOL       0.067700
     38 H11         -1.7010     3.6800     3.7930 h1         1 MOL       0.067700
     39 H12          1.7410     3.7540     3.4920 h1         1 MOL       0.082700
     40 H13          1.8880     2.1480     4.2210 h1         1 MOL       0.082700
     41 H14          0.1520     1.1430     2.0250 hn         1 MOL       0.355500
     42 H15          3.2570     1.0110    -0.1050 ha         1 MOL       0.174500
     43 H16          3.4140    -0.4130    -2.0780 ha         1 MOL       0.160000
     44 H17          2.6270    -4.1650    -3.0060 hn         1 MOL       0.459800
     45 H18         -1.5840    -7.1290    -3.6190 h5         1 MOL       0.065100
     46 H19         -0.6120    -1.8280    -1.3900 ha         1 MOL       0.160000
     47 H20         -0.7640    -0.4070     0.6020 ha         1 MOL       0.174500
@<TRIPOS>BOND
     1     1     2 1   
     2     2     3 1   
     3     3     4 1   
     4     4     5 1   
     5     5     6 1   
     6     6     7 1   
     7     7     8 1   
     8     8     9 1   
     9     9    10 1   
    10    10    11 2   
    11    10    12 1   
    12    12    13 1   
    13    13    14 ar  
    14    14    15 ar  
    15    15    16 ar  
    16    16    17 1   
    17    17    18 2   
    18    17    19 2   
    19    17    20 1   
    20    20    21 1   
    21    21    22 2   
    22    22    23 1   
    23    23    24 2   
    24    24    25 1   
    25    16    26 ar  
    26    26    27 ar  
    27    27    13 ar  
    28    25    21 1   
    29     1    28 1   
    30     1    29 1   
    31     1    30 1   
    32     3    31 1   
    33     3    32 1   
    34     4    33 1   
    35     4    34 1   
    36     6    35 1   
    37     6    36 1   
    38     7    37 1   
    39     7    38 1   
    40     9    39 1   
    41     9    40 1   
    42    12    41 1   
    43    14    42 1   
    44    15    43 1   
    45    20    44 1   
    46    24    45 1   
    47    26    46 1   
    48    27    47 1   
@<TRIPOS>SUBSTRUCTURE
     1 MOL         1 TEMP              0 ****  ****    0 ROOT
