@<TRIPOS>MOLECULE
MOL
   96   101     1     0     0
SMALL
bcc


@<TRIPOS>ATOM
      1 O1           0.5840    -1.8650    -2.3970 o          1 MOL      -0.643100
      2 C1           1.7030    -2.1740    -1.9810 c          1 MOL       0.725300
      3 N1           1.8780    -2.6940    -0.7200 ns         1 MOL      -0.562900
      4 C2           0.8090    -3.0490     0.2250 c3         1 MOL       0.078400
      5 C3           0.0940    -1.7640     0.7210 c          1 MOL       0.670100
      6 O2           0.3000    -1.2400     1.8150 o          1 MOL      -0.715100
      7 N2          -0.7370    -1.1860    -0.2140 ns         1 MOL      -0.553900
      8 C4          -1.4150     0.0780     0.0370 c3         1 MOL       0.046700
      9 C5          -2.6070     0.2990    -0.9020 c3         1 MOL      -0.039100
     10 C6          -3.7590    -0.6270    -0.5930 ca         1 MOL      -0.114300
     11 C7          -3.8840    -1.8550    -1.2570 ca         1 MOL      -0.125000
     12 C8          -4.9330    -2.7210    -0.9470 ca         1 MOL      -0.123000
     13 C9          -5.8640    -2.3700     0.0270 ca         1 MOL      -0.115000
     14 C10         -5.7510    -1.1510     0.6920 ca         1 MOL      -0.123000
     15 C11         -4.7030    -0.2820     0.3840 ca         1 MOL      -0.125000
     16 C12         -0.3960     1.2200    -0.1550 c          1 MOL       0.664100
     17 O3          -0.3690     2.2100     0.5830 o          1 MOL      -0.691100
     18 N3           0.4090     1.0930    -1.2720 ns         1 MOL      -0.546900
     19 C13          1.4100     2.0700    -1.6410 c3         1 MOL       0.088000
     20 C14          2.8190     1.7520    -1.1450 c3         1 MOL      -0.179400
     21 C15          2.8770     1.0830     0.2160 c          1 MOL       0.678100
     22 O4           3.0870    -0.1300     0.2860 o          1 MOL      -0.594100
     23 N4           2.6760     1.8480     1.3510 n          1 MOL      -0.476800
     24 C16          2.6340     1.1830     2.6560 c3         1 MOL       0.075500
     25 C17          1.3320     1.4780     3.4260 c3         1 MOL       0.088300
     26 N5           0.7360     2.8400     3.0560 nx         1 MOL      -0.675400
     27 C18         -0.1610     3.4320     4.1120 c3         1 MOL       0.121800
     28 C19         -1.3100     2.5160     4.5480 c3         1 MOL      -0.081700
     29 C20         -2.3320     2.2340     3.4480 c3         1 MOL      -0.116400
     30 C21         -3.4340     1.2970     3.9500 c3         1 MOL       0.126400
     31 O5          -3.5350     1.2880     5.3720 os         1 MOL      -0.405600
     32 C22         -3.4540     2.5920     5.9310 c3         1 MOL       0.126400
     33 C23         -2.0380     3.1390     5.7580 c3         1 MOL      -0.116400
     34 C24          1.8140     3.8220     2.6310 c3         1 MOL       0.088300
     35 C25          2.5460     3.3060     1.3790 c3         1 MOL       0.075500
     36 C26         -0.1630    -4.1010    -0.3310 c3         1 MOL      -0.086900
     37 C27          0.5560    -5.4390    -0.1750 c3         1 MOL      -0.080900
     38 C28          1.6040    -5.2370     0.9150 c3         1 MOL      -0.080900
     39 C29          1.4090    -3.8120     1.4200 c3         1 MOL      -0.086900
     40 C30          2.9110    -1.9490    -2.7610 cc         1 MOL      -0.198600
     41 C31          2.9800    -1.4100    -4.0300 cd         1 MOL      -0.034200
     42 C32          4.3190    -1.2930    -4.5300 ca         1 MOL      -0.107800
     43 C33          4.8020    -0.7930    -5.7620 ca         1 MOL      -0.075000
     44 C34          6.1740    -0.7810    -6.0310 ca         1 MOL      -0.131000
     45 C35          7.0760    -1.2600    -5.0920 ca         1 MOL      -0.097000
     46 C36          6.6280    -1.7610    -3.8680 ca         1 MOL      -0.105000
     47 C37          5.2450    -1.7720    -3.6020 ca         1 MOL      -0.057100
     48 S1           4.4670    -2.3430    -2.1780 ss         1 MOL       0.046500
     49 H1           2.8340    -2.7110    -0.3770 hn         1 MOL       0.335500
     50 H2          -0.7300    -1.5780    -1.1560 hn         1 MOL       0.367500
     51 H3          -1.7320     0.0880     1.0850 h1         1 MOL       0.089700
     52 H4          -2.9590     1.3370    -0.8270 hc         1 MOL       0.069200
     53 H5          -2.3060     0.1690    -1.9510 hc         1 MOL       0.069200
     54 H6          -3.1690    -2.1480    -2.0230 ha         1 MOL       0.138500
     55 H7          -5.0260    -3.6710    -1.4680 ha         1 MOL       0.142500
     56 H8          -6.6830    -3.0450     0.2650 ha         1 MOL       0.143000
     57 H9          -6.4830    -0.8770     1.4480 ha         1 MOL       0.142500
     58 H10         -4.6360     0.6670     0.9090 ha         1 MOL       0.138500
     59 H11          0.3500     0.2280    -1.8080 hn         1 MOL       0.336500
     60 H12          1.4170     2.1190    -2.7360 h1         1 MOL       0.071700
     61 H13          1.0850     3.0530    -1.2910 h1         1 MOL       0.071700
     62 H14          3.2920     1.0600    -1.8530 hc         1 MOL       0.092200
     63 H15          3.4430     2.6520    -1.1510 hc         1 MOL       0.092200
     64 H16          3.4910     1.5610     3.2260 h1         1 MOL       0.088450
     65 H17          2.7690     0.1000     2.5750 h1         1 MOL       0.088450
     66 H18          0.5570     0.7470     3.1910 hx         1 MOL       0.104200
     67 H19          1.5230     1.4700     4.5040 hx         1 MOL       0.104200
     68 H20          0.1810     2.6570     2.1900 hn         1 MOL       0.504800
     69 H21         -0.5580     4.3660     3.6970 hx         1 MOL       0.092200
     70 H22          0.4820     3.6760     4.9660 hx         1 MOL       0.092200
     71 H23         -0.8960     1.5550     4.8830 hc         1 MOL       0.091700
     72 H24         -1.8700     1.7960     2.5640 hc         1 MOL       0.057200
     73 H25         -2.7860     3.1780     3.1200 hc         1 MOL       0.057200
     74 H26         -4.4030     1.5710     3.5170 h1         1 MOL       0.060700
     75 H27         -3.2200     0.2690     3.6390 h1         1 MOL       0.060700
     76 H28         -4.1940     3.2450     5.4510 h1         1 MOL       0.060700
     77 H29         -3.7100     2.5360     6.9940 h1         1 MOL       0.060700
     78 H30         -2.0870     4.2320     5.6850 hc         1 MOL       0.057200
     79 H31         -1.4520     2.9210     6.6600 hc         1 MOL       0.057200
     80 H32          1.3400     4.7880     2.4270 hx         1 MOL       0.104200
     81 H33          2.4990     3.9290     3.4800 hx         1 MOL       0.104200
     82 H34          2.0210     3.6530     0.4900 h1         1 MOL       0.088450
     83 H35          3.5550     3.7320     1.3350 h1         1 MOL       0.088450
     84 H36         -0.4590    -3.9370    -1.3720 hc         1 MOL       0.065950
     85 H37         -1.0860    -4.1160     0.2630 hc         1 MOL       0.065950
     86 H38         -0.1490    -6.2360     0.0840 hc         1 MOL       0.055700
     87 H39          1.0440    -5.7260    -1.1130 hc         1 MOL       0.055700
     88 H40          2.6080    -5.3590     0.4930 hc         1 MOL       0.055700
     89 H41          1.4990    -5.9670     1.7250 hc         1 MOL       0.055700
     90 H42          0.7100    -3.8230     2.2660 hc         1 MOL       0.065950
     91 H43          2.3490    -3.3800     1.7800 hc         1 MOL       0.065950
     92 H44          2.1010    -1.1070    -4.5880 ha         1 MOL       0.176000
     93 H45          4.1060    -0.4200    -6.5110 ha         1 MOL       0.144000
     94 H46          6.5340    -0.3990    -6.9840 ha         1 MOL       0.145000
     95 H47          8.1420    -1.2520    -5.3110 ha         1 MOL       0.144000
     96 H48          7.3370    -2.1420    -3.1380 ha         1 MOL       0.144000
@<TRIPOS>BOND
     1     1     2 2   
     2     2     3 1   
     3     3     4 1   
     4     4     5 1   
     5     5     6 2   
     6     5     7 1   
     7     7     8 1   
     8     8     9 1   
     9     9    10 1   
    10    10    11 ar  
    11    11    12 ar  
    12    12    13 ar  
    13    13    14 ar  
    14    14    15 ar  
    15     8    16 1   
    16    16    17 2   
    17    16    18 1   
    18    18    19 1   
    19    19    20 1   
    20    20    21 1   
    21    21    22 2   
    22    21    23 1   
    23    23    24 1   
    24    24    25 1   
    25    25    26 1   
    26    26    27 1   
    27    27    28 1   
    28    28    29 1   
    29    29    30 1   
    30    30    31 1   
    31    31    32 1   
    32    32    33 1   
    33    26    34 1   
    34    34    35 1   
    35     4    36 1   
    36    36    37 1   
    37    37    38 1   
    38    38    39 1   
    39     2    40 1   
    40    40    41 2   
    41    41    42 1   
    42    42    43 ar  
    43    43    44 ar  
    44    44    45 ar  
    45    45    46 ar  
    46    46    47 ar  
    47    47    48 1   
    48    39     4 1   
    49    48    40 1   
    50    15    10 ar  
    51    35    23 1   
    52    47    42 ar  
    53    33    28 1   
    54     3    49 1   
    55     7    50 1   
    56     8    51 1   
    57     9    52 1   
    58     9    53 1   
    59    11    54 1   
    60    12    55 1   
    61    13    56 1   
    62    14    57 1   
    63    15    58 1   
    64    18    59 1   
    65    19    60 1   
    66    19    61 1   
    67    20    62 1   
    68    20    63 1   
    69    24    64 1   
    70    24    65 1   
    71    25    66 1   
    72    25    67 1   
    73    26    68 1   
    74    27    69 1   
    75    27    70 1   
    76    28    71 1   
    77    29    72 1   
    78    29    73 1   
    79    30    74 1   
    80    30    75 1   
    81    32    76 1   
    82    32    77 1   
    83    33    78 1   
    84    33    79 1   
    85    34    80 1   
    86    34    81 1   
    87    35    82 1   
    88    35    83 1   
    89    36    84 1   
    90    36    85 1   
    91    37    86 1   
    92    37    87 1   
    93    38    88 1   
    94    38    89 1   
    95    39    90 1   
    96    39    91 1   
    97    41    92 1   
    98    43    93 1   
    99    44    94 1   
   100    45    95 1   
   101    46    96 1   
@<TRIPOS>SUBSTRUCTURE
     1 MOL         1 TEMP              0 ****  ****    0 ROOT
