
     RDKit          3D

 96101  0  0  0  0  0  0  0  0999 V2000
    0.5840   -1.8655   -2.3975 O   0  0  0  0  0  0  0  0  0  0  0  0
    1.7026   -2.1737   -1.9808 C   0  0  0  0  0  0  0  0  0  0  0  0
    1.8782   -2.6941   -0.7198 N   0  0  0  0  0  0  0  0  0  0  0  0
    0.8092   -3.0494    0.2250 C   0  0  0  0  0  0  0  0  0  0  0  0
    0.0939   -1.7644    0.7210 C   0  0  0  0  0  0  0  0  0  0  0  0
    0.3002   -1.2401    1.8153 O   0  0  0  0  0  0  0  0  0  0  0  0
   -0.7373   -1.1856   -0.2139 N   0  0  0  0  0  0  0  0  0  0  0  0
   -1.4150    0.0776    0.0366 C   0  0  2  0  0  0  0  0  0  0  0  0
   -2.6069    0.2990   -0.9025 C   0  0  0  0  0  0  0  0  0  0  0  0
   -3.7587   -0.6268   -0.5931 C   0  0  0  0  0  0  0  0  0  0  0  0
   -3.8840   -1.8549   -1.2571 C   0  0  0  0  0  0  0  0  0  0  0  0
   -4.9328   -2.7215   -0.9473 C   0  0  0  0  0  0  0  0  0  0  0  0
   -5.8645   -2.3699    0.0272 C   0  0  0  0  0  0  0  0  0  0  0  0
   -5.7506   -1.1506    0.6918 C   0  0  0  0  0  0  0  0  0  0  0  0
   -4.7028   -0.2818    0.3840 C   0  0  0  0  0  0  0  0  0  0  0  0
   -0.3958    1.2196   -0.1552 C   0  0  0  0  0  0  0  0  0  0  0  0
   -0.3692    2.2099    0.5834 O   0  0  0  0  0  0  0  0  0  0  0  0
    0.4089    1.0934   -1.2723 N   0  0  0  0  0  0  0  0  0  0  0  0
    1.4098    2.0695   -1.6415 C   0  0  0  0  0  0  0  0  0  0  0  0
    2.8194    1.7516   -1.1446 C   0  0  0  0  0  0  0  0  0  0  0  0
    2.8768    1.0833    0.2159 C   0  0  0  0  0  0  0  0  0  0  0  0
    3.0865   -0.1298    0.2860 O   0  0  0  0  0  0  0  0  0  0  0  0
    2.6756    1.8479    1.3512 N   0  0  0  0  0  0  0  0  0  0  0  0
    2.6336    1.1828    2.6556 C   0  0  0  0  0  0  0  0  0  0  0  0
    1.3317    1.4782    3.4259 C   0  0  0  0  0  0  0  0  0  0  0  0
    0.7355    2.8397    3.0563 N   0  0  0  0  0  0  0  0  0  0  0  0
   -0.1613    3.4317    4.1115 C   0  0  0  0  0  0  0  0  0  0  0  0
   -1.3095    2.5157    4.5485 C   0  0  0  0  0  0  0  0  0  0  0  0
   -2.3322    2.2338    3.4477 C   0  0  0  0  0  0  0  0  0  0  0  0
   -3.4344    1.2972    3.9495 C   0  0  0  0  0  0  0  0  0  0  0  0
   -3.5355    1.2882    5.3724 O   0  0  0  0  0  0  0  0  0  0  0  0
   -3.4542    2.5924    5.9310 C   0  0  0  0  0  0  0  0  0  0  0  0
   -2.0384    3.1385    5.7577 C   0  0  0  0  0  0  0  0  0  0  0  0
    1.8141    3.8225    2.6305 C   0  0  0  0  0  0  0  0  0  0  0  0
    2.5460    3.3061    1.3788 C   0  0  0  0  0  0  0  0  0  0  0  0
   -0.1633   -4.1009   -0.3314 C   0  0  0  0  0  0  0  0  0  0  0  0
    0.5557   -5.4395   -0.1747 C   0  0  0  0  0  0  0  0  0  0  0  0
    1.6039   -5.2375    0.9155 C   0  0  0  0  0  0  0  0  0  0  0  0
    1.4095   -3.8118    1.4198 C   0  0  0  0  0  0  0  0  0  0  0  0
    2.9110   -1.9489   -2.7606 C   0  0  0  0  0  0  0  0  0  0  0  0
    2.9800   -1.4097   -4.0300 C   0  0  0  0  0  0  0  0  0  0  0  0
    4.3189   -1.2933   -4.5297 C   0  0  0  0  0  0  0  0  0  0  0  0
    4.8019   -0.7931   -5.7624 C   0  0  0  0  0  0  0  0  0  0  0  0
    6.1739   -0.7806   -6.0310 C   0  0  0  0  0  0  0  0  0  0  0  0
    7.0762   -1.2599   -5.0917 C   0  0  0  0  0  0  0  0  0  0  0  0
    6.6280   -1.7613   -3.8676 C   0  0  0  0  0  0  0  0  0  0  0  0
    5.2452   -1.7719   -3.6015 C   0  0  0  0  0  0  0  0  0  0  0  0
    4.4669   -2.3427   -2.1776 S   0  0  0  0  0  0  0  0  0  0  0  0
    2.8337   -2.7106   -0.3771 H   0  0  0  0  0  0  0  0  0  0  0  0
   -0.7301   -1.5778   -1.1563 H   0  0  0  0  0  0  0  0  0  0  0  0
   -1.7324    0.0881    1.0848 H   0  0  0  0  0  0  0  0  0  0  0  0
   -2.9586    1.3366   -0.8268 H   0  0  0  0  0  0  0  0  0  0  0  0
   -2.3061    0.1690   -1.9508 H   0  0  0  0  0  0  0  0  0  0  0  0
   -3.1693   -2.1483   -2.0228 H   0  0  0  0  0  0  0  0  0  0  0  0
   -5.0263   -3.6714   -1.4682 H   0  0  0  0  0  0  0  0  0  0  0  0
   -6.6827   -3.0452    0.2654 H   0  0  0  0  0  0  0  0  0  0  0  0
   -6.4829   -0.8775    1.4477 H   0  0  0  0  0  0  0  0  0  0  0  0
   -4.6361    0.6674    0.9088 H   0  0  0  0  0  0  0  0  0  0  0  0
    0.3499    0.2280   -1.8080 H   0  0  0  0  0  0  0  0  0  0  0  0
    1.4174    2.1192   -2.7361 H   0  0  0  0  0  0  0  0  0  0  0  0
    1.0846    3.0528   -1.2906 H   0  0  0  0  0  0  0  0  0  0  0  0
    3.2921    1.0595   -1.8527 H   0  0  0  0  0  0  0  0  0  0  0  0
    3.4430    2.6519   -1.1508 H   0  0  0  0  0  0  0  0  0  0  0  0
    3.4910    1.5614    3.2263 H   0  0  0  0  0  0  0  0  0  0  0  0
    2.7689    0.0998    2.5746 H   0  0  0  0  0  0  0  0  0  0  0  0
    0.5569    0.7467    3.1914 H   0  0  0  0  0  0  0  0  0  0  0  0
    1.5232    1.4705    4.5043 H   0  0  0  0  0  0  0  0  0  0  0  0
    0.1811    2.6570    2.1897 H   0  0  0  0  0  0  0  0  0  0  0  0
   -0.5577    4.3662    3.6974 H   0  0  0  0  0  0  0  0  0  0  0  0
    0.4816    3.6759    4.9656 H   0  0  0  0  0  0  0  0  0  0  0  0
   -0.8960    1.5553    4.8826 H   0  0  0  0  0  0  0  0  0  0  0  0
   -1.8696    1.7957    2.5636 H   0  0  0  0  0  0  0  0  0  0  0  0
   -2.7861    3.1781    3.1202 H   0  0  0  0  0  0  0  0  0  0  0  0
   -4.4033    1.5711    3.5173 H   0  0  0  0  0  0  0  0  0  0  0  0
   -3.2197    0.2693    3.6385 H   0  0  0  0  0  0  0  0  0  0  0  0
   -4.1936    3.2448    5.4508 H   0  0  0  0  0  0  0  0  0  0  0  0
   -3.7099    2.5357    6.9939 H   0  0  0  0  0  0  0  0  0  0  0  0
   -2.0874    4.2318    5.6851 H   0  0  0  0  0  0  0  0  0  0  0  0
   -1.4525    2.9208    6.6599 H   0  0  0  0  0  0  0  0  0  0  0  0
    1.3402    4.7884    2.4269 H   0  0  0  0  0  0  0  0  0  0  0  0
    2.4989    3.9287    3.4796 H   0  0  0  0  0  0  0  0  0  0  0  0
    2.0209    3.6533    0.4897 H   0  0  0  0  0  0  0  0  0  0  0  0
    3.5548    3.7317    1.3355 H   0  0  0  0  0  0  0  0  0  0  0  0
   -0.4590   -3.9372   -1.3717 H   0  0  0  0  0  0  0  0  0  0  0  0
   -1.0863   -4.1156    0.2632 H   0  0  0  0  0  0  0  0  0  0  0  0
   -0.1493   -6.2364    0.0835 H   0  0  0  0  0  0  0  0  0  0  0  0
    1.0441   -5.7261   -1.1131 H   0  0  0  0  0  0  0  0  0  0  0  0
    2.6081   -5.3587    0.4927 H   0  0  0  0  0  0  0  0  0  0  0  0
    1.4991   -5.9672    1.7246 H   0  0  0  0  0  0  0  0  0  0  0  0
    0.7097   -3.8231    2.2657 H   0  0  0  0  0  0  0  0  0  0  0  0
    2.3495   -3.3797    1.7805 H   0  0  0  0  0  0  0  0  0  0  0  0
    2.1010   -1.1065   -4.5875 H   0  0  0  0  0  0  0  0  0  0  0  0
    4.1062   -0.4205   -6.5105 H   0  0  0  0  0  0  0  0  0  0  0  0
    6.5340   -0.3985   -6.9837 H   0  0  0  0  0  0  0  0  0  0  0  0
    8.1417   -1.2515   -5.3113 H   0  0  0  0  0  0  0  0  0  0  0  0
    7.3374   -2.1417   -3.1379 H   0  0  0  0  0  0  0  0  0  0  0  0
  1  2  2  0
  2  3  1  0
  3  4  1  0
  4  5  1  0
  5  6  2  0
  5  7  1  0
  7  8  1  0
  8  9  1  0
  9 10  1  0
 10 11  2  0
 11 12  1  0
 12 13  2  0
 13 14  1  0
 14 15  2  0
  8 16  1  0
 16 17  2  0
 16 18  1  0
 18 19  1  0
 19 20  1  0
 20 21  1  0
 21 22  2  0
 21 23  1  0
 23 24  1  0
 24 25  1  0
 25 26  1  0
 26 27  1  0
 27 28  1  0
 28 29  1  0
 29 30  1  0
 30 31  1  0
 31 32  1  0
 32 33  1  0
 26 34  1  0
 34 35  1  0
  4 36  1  0
 36 37  1  0
 37 38  1  0
 38 39  1  0
  2 40  1  0
 40 41  2  0
 41 42  1  0
 42 43  2  0
 43 44  1  0
 44 45  2  0
 45 46  1  0
 46 47  2  0
 47 48  1  0
 39  4  1  0
 48 40  1  0
 15 10  1  0
 35 23  1  0
 47 42  1  0
 33 28  1  0
  3 49  1  0
  7 50  1  0
  8 51  1  1
  9 52  1  0
  9 53  1  0
 11 54  1  0
 12 55  1  0
 13 56  1  0
 14 57  1  0
 15 58  1  0
 18 59  1  0
 19 60  1  0
 19 61  1  0
 20 62  1  0
 20 63  1  0
 24 64  1  0
 24 65  1  0
 25 66  1  0
 25 67  1  0
 26 68  1  0
 27 69  1  0
 27 70  1  0
 28 71  1  0
 29 72  1  0
 29 73  1  0
 30 74  1  0
 30 75  1  0
 32 76  1  0
 32 77  1  0
 33 78  1  0
 33 79  1  0
 34 80  1  0
 34 81  1  0
 35 82  1  0
 35 83  1  0
 36 84  1  0
 36 85  1  0
 37 86  1  0
 37 87  1  0
 38 88  1  0
 38 89  1  0
 39 90  1  0
 39 91  1  0
 41 92  1  0
 43 93  1  0
 44 94  1  0
 45 95  1  0
 46 96  1  0
M  CHG  1  26   1
M  END
$$$$
