
     RDKit          3D

 75 78  0  0  0  0  0  0  0  0999 V2000
   -4.6304    3.9719    2.2854 C   0  0  0  0  0  0  0  0  0  0  0  0
   -3.6621    3.0897    2.0089 C   0  0  0  0  0  0  0  0  0  0  0  0
   -3.8334    1.6878    1.7071 C   0  0  0  0  0  0  0  0  0  0  0  0
   -2.8747    0.7579    1.4854 C   0  0  0  0  0  0  0  0  0  0  0  0
   -1.4022    0.9701    1.6197 C   0  0  0  0  0  0  0  0  0  0  0  0
   -3.4691   -0.5283    1.1559 C   0  0  0  0  0  0  0  0  0  0  0  0
   -2.9752   -1.7212    0.8041 C   0  0  0  0  0  0  0  0  0  0  0  0
   -1.5629   -2.0457    0.5345 C   0  0  0  0  0  0  0  0  0  0  0  0
   -0.7617   -1.3550   -0.2169 N   0  0  0  0  0  0  0  0  0  0  0  0
    0.4172   -2.0799   -0.2602 C   0  0  0  0  0  0  0  0  0  0  0  0
    1.5362   -1.6985   -0.9068 C   0  0  0  0  0  0  0  0  0  0  0  0
    1.6883   -0.4723   -1.6236 C   0  0  0  0  0  0  0  0  0  0  0  0
    0.6151    0.3756   -1.7348 N   0  0  0  0  0  0  0  0  0  0  0  0
    0.9689    1.5351   -2.3665 C   0  0  0  0  0  0  0  0  0  0  0  0
   -0.0038    2.5537   -2.4529 C   0  0  0  0  0  0  0  0  0  0  0  0
   -0.1573    3.5106   -1.5246 C   0  0  0  0  0  0  0  0  0  0  0  0
   -1.1717    4.4220   -1.6018 N   0  0  0  0  0  0  0  0  0  0  0  0
   -1.1825    5.2670   -0.5261 C   0  0  0  0  0  0  0  0  0  0  0  0
   -1.9700    6.1672   -0.2995 O   0  0  0  0  0  0  0  0  0  0  0  0
   -0.0337    4.8719    0.3208 C   0  0  0  0  0  0  0  0  0  0  0  0
    0.3028    5.6598    1.5303 C   0  0  0  0  0  0  0  0  0  0  0  0
    0.5603    3.8171   -0.2819 C   0  0  0  0  0  0  0  0  0  0  0  0
    1.7838    3.2082    0.2018 C   0  0  0  0  0  0  0  0  0  0  0  0
    1.9992    2.7588    1.4448 C   0  0  0  0  0  0  0  0  0  0  0  0
    2.2786    1.3989   -2.7900 C   0  0  0  0  0  0  0  0  0  0  0  0
    3.0713    2.4036   -3.5531 C   0  0  0  0  0  0  0  0  0  0  0  0
    2.7563    0.1404   -2.2718 C   0  0  0  0  0  0  0  0  0  0  0  0
    4.1642   -0.3837   -2.3821 C   0  0  0  0  0  0  0  0  0  0  0  0
    5.0678    0.0847   -1.2464 C   0  0  0  0  0  0  0  0  0  0  0  0
    5.6894    1.4563   -1.4932 C   0  0  0  0  0  0  0  0  0  0  0  0
    5.6250    2.2615   -0.5197 O   0  0  0  0  0  0  0  0  0  0  0  0
    6.2406    1.6195   -2.6198 O   0  0  0  0  0  0  0  0  0  0  0  0
    0.2201   -3.2950    0.5219 C   0  0  0  0  0  0  0  0  0  0  0  0
    1.2502   -4.3772    0.6952 C   0  0  0  0  0  0  0  0  0  0  0  0
    1.1178   -5.4915   -0.3406 C   0  0  0  0  0  0  0  0  0  0  0  0
    0.0466   -6.4891    0.0937 C   0  0  0  0  0  0  0  0  0  0  0  0
    0.3392   -7.1912    1.1038 O   0  0  0  0  0  0  0  0  0  0  0  0
   -1.0068   -6.4980   -0.6030 O   0  0  0  0  0  0  0  0  0  0  0  0
   -1.0074   -3.2962    1.0650 C   0  0  0  0  0  0  0  0  0  0  0  0
   -1.7013   -4.2516    1.9556 C   0  0  0  0  0  0  0  0  0  0  0  0
   -4.8161   -0.3338    1.2578 N   0  0  0  0  0  0  0  0  0  0  0  0
   -5.1357    0.9654    1.5643 C   0  0  0  0  0  0  0  0  0  0  0  0
   -6.2630    1.4079    1.6938 O   0  0  0  0  0  0  0  0  0  0  0  0
   -5.6804    3.7010    2.3193 H   0  0  0  0  0  0  0  0  0  0  0  0
   -4.3828    5.0120    2.4744 H   0  0  0  0  0  0  0  0  0  0  0  0
   -2.6431    3.4693    1.9862 H   0  0  0  0  0  0  0  0  0  0  0  0
   -1.1654    1.8627    2.2060 H   0  0  0  0  0  0  0  0  0  0  0  0
   -0.9413    1.0953    0.6391 H   0  0  0  0  0  0  0  0  0  0  0  0
   -0.9263    0.1377    2.1473 H   0  0  0  0  0  0  0  0  0  0  0  0
   -3.6456   -2.5593    0.6368 H   0  0  0  0  0  0  0  0  0  0  0  0
    2.4098   -2.3407   -0.8787 H   0  0  0  0  0  0  0  0  0  0  0  0
   -0.2861    0.1682   -1.3198 H   0  0  0  0  0  0  0  0  0  0  0  0
   -0.6723    2.5103   -3.3071 H   0  0  0  0  0  0  0  0  0  0  0  0
   -1.8576    4.4688   -2.3376 H   0  0  0  0  0  0  0  0  0  0  0  0
   -0.4140    5.4499    2.3304 H   0  0  0  0  0  0  0  0  0  0  0  0
    1.3066    5.4460    1.9063 H   0  0  0  0  0  0  0  0  0  0  0  0
    0.2674    6.7325    1.3122 H   0  0  0  0  0  0  0  0  0  0  0  0
    2.5831    3.0746   -0.5284 H   0  0  0  0  0  0  0  0  0  0  0  0
    1.2555    2.8134    2.2283 H   0  0  0  0  0  0  0  0  0  0  0  0
    2.9555    2.2937    1.6761 H   0  0  0  0  0  0  0  0  0  0  0  0
    3.7838    1.9187   -4.2265 H   0  0  0  0  0  0  0  0  0  0  0  0
    3.6204    3.0576   -2.8697 H   0  0  0  0  0  0  0  0  0  0  0  0
    2.4186    3.0308   -4.1694 H   0  0  0  0  0  0  0  0  0  0  0  0
    4.1259   -1.4805   -2.3629 H   0  0  0  0  0  0  0  0  0  0  0  0
    4.5774   -0.1262   -3.3636 H   0  0  0  0  0  0  0  0  0  0  0  0
    4.5351    0.0738   -0.2877 H   0  0  0  0  0  0  0  0  0  0  0  0
    5.9083   -0.6146   -1.1513 H   0  0  0  0  0  0  0  0  0  0  0  0
    1.1903   -4.7827    1.7129 H   0  0  0  0  0  0  0  0  0  0  0  0
    2.2564   -3.9473    0.6326 H   0  0  0  0  0  0  0  0  0  0  0  0
    0.9024   -5.0944   -1.3393 H   0  0  0  0  0  0  0  0  0  0  0  0
    2.0662   -6.0382   -0.4112 H   0  0  0  0  0  0  0  0  0  0  0  0
   -2.5087   -4.7610    1.4208 H   0  0  0  0  0  0  0  0  0  0  0  0
   -2.1339   -3.7285    2.8148 H   0  0  0  0  0  0  0  0  0  0  0  0
   -1.0263   -5.0120    2.3556 H   0  0  0  0  0  0  0  0  0  0  0  0
   -5.5243   -1.0318    1.0915 H   0  0  0  0  0  0  0  0  0  0  0  0
  1  2  2  0
  2  3  1  0
  3  4  2  0
  4  5  1  0
  4  6  1  0
  6  7  2  0
  7  8  1  0
  8  9  2  0
  9 10  1  0
 10 11  2  0
 11 12  1  0
 12 13  1  0
 13 14  1  0
 14 15  1  0
 15 16  2  0
 16 17  1  0
 17 18  1  0
 18 19  2  0
 18 20  1  0
 20 21  1  0
 20 22  2  0
 22 23  1  0
 23 24  2  0
 14 25  2  0
 25 26  1  0
 25 27  1  0
 27 28  1  0
 28 29  1  0
 29 30  1  0
 30 31  2  0
 30 32  1  0
 10 33  1  0
 33 34  1  0
 34 35  1  0
 35 36  1  0
 36 37  2  0
 36 38  1  0
 33 39  2  0
 39 40  1  0
  6 41  1  0
 41 42  1  0
 42 43  2  0
 42  3  1  0
 39  8  1  0
 27 12  2  0
 22 16  1  0
  1 44  1  0
  1 45  1  0
  2 46  1  0
  5 47  1  0
  5 48  1  0
  5 49  1  0
  7 50  1  0
 11 51  1  0
 13 52  1  0
 15 53  1  0
 17 54  1  0
 21 55  1  0
 21 56  1  0
 21 57  1  0
 23 58  1  0
 24 59  1  0
 24 60  1  0
 26 61  1  0
 26 62  1  0
 26 63  1  0
 28 64  1  0
 28 65  1  0
 29 66  1  0
 29 67  1  0
 34 68  1  0
 34 69  1  0
 35 70  1  0
 35 71  1  0
 40 72  1  0
 40 73  1  0
 40 74  1  0
 41 75  1  0
M  CHG  2  32  -1  38  -1
M  END
$$$$
