@<TRIPOS>MOLECULE
MOL
   75    78     1     0     0
SMALL
bcc


@<TRIPOS>ATOM
      1 C1          -4.6300     3.9720     2.2850 c2         1 MOL      -0.219000
      2 C2          -3.6620     3.0900     2.0090 ce         1 MOL      -0.099000
      3 C3          -3.8330     1.6880     1.7070 cc         1 MOL      -0.185200
      4 C4          -2.8750     0.7580     1.4850 cd         1 MOL       0.026800
      5 C5          -1.4020     0.9700     1.6200 c3         1 MOL      -0.065900
      6 C6          -3.4690    -0.5280     1.1560 cd         1 MOL       0.013600
      7 C7          -2.9750    -1.7210     0.8040 ce         1 MOL      -0.159600
      8 C8          -1.5630    -2.0460     0.5340 cc         1 MOL       0.443900
      9 N1          -0.7620    -1.3550    -0.2170 nd         1 MOL      -0.601300
     10 C9           0.4170    -2.0800    -0.2600 cd         1 MOL       0.004600
     11 C10          1.5360    -1.6980    -0.9070 ce         1 MOL       0.067800
     12 C11          1.6880    -0.4720    -1.6240 cc         1 MOL      -0.132100
     13 N2           0.6150     0.3760    -1.7350 na         1 MOL      -0.141100
     14 C12          0.9690     1.5350    -2.3660 cc         1 MOL      -0.090100
     15 C13         -0.0040     2.5540    -2.4530 ce         1 MOL      -0.106200
     16 C14         -0.1570     3.5110    -1.5250 cd         1 MOL       0.051600
     17 N3          -1.1720     4.4220    -1.6020 ns         1 MOL      -0.514100
     18 C15         -1.1830     5.2670    -0.5260 c          1 MOL       0.701700
     19 O1          -1.9700     6.1670    -0.2990 o          1 MOL      -0.644500
     20 C16         -0.0340     4.8720     0.3210 cc         1 MOL      -0.219400
     21 C17          0.3030     5.6600     1.5300 c3         1 MOL      -0.027900
     22 C18          0.5600     3.8170    -0.2820 cd         1 MOL       0.054000
     23 C19          1.7840     3.2080     0.2020 cf         1 MOL      -0.178000
     24 C20          1.9990     2.7590     1.4450 c2         1 MOL      -0.152000
     25 C21          2.2790     1.3990    -2.7900 cd         1 MOL      -0.117300
     26 C22          3.0710     2.4040    -3.5530 c3         1 MOL      -0.055800
     27 C23          2.7560     0.1400    -2.2720 cd         1 MOL      -0.052300
     28 C24          4.1640    -0.3840    -2.3820 c3         1 MOL      -0.012100
     29 C25          5.0680     0.0850    -1.2460 c3         1 MOL      -0.187400
     30 C26          5.6890     1.4560    -1.4930 c          1 MOL       0.909600
     31 O2           5.6250     2.2610    -0.5200 o          1 MOL      -0.860300
     32 O3           6.2410     1.6190    -2.6200 o          1 MOL      -0.860300
     33 C27          0.2200    -3.2950     0.5220 cd         1 MOL      -0.032200
     34 C28          1.2500    -4.3770     0.6950 c3         1 MOL      -0.031200
     35 C29          1.1180    -5.4920    -0.3410 c3         1 MOL      -0.190400
     36 C30          0.0470    -6.4890     0.0940 c          1 MOL       0.906600
     37 O4           0.3390    -7.1910     1.1040 o          1 MOL      -0.853800
     38 O5          -1.0070    -6.4980    -0.6030 o          1 MOL      -0.853800
     39 C31         -1.0070    -3.2960     1.0650 cc         1 MOL      -0.251800
     40 C32         -1.7010    -4.2520     1.9560 c3         1 MOL      -0.057900
     41 N4          -4.8160    -0.3340     1.2580 ns         1 MOL      -0.508100
     42 C33         -5.1360     0.9650     1.5640 c          1 MOL       0.706700
     43 O6          -6.2630     1.4080     1.6940 o          1 MOL      -0.646500
     44 H1          -5.6800     3.7010     2.3190 ha         1 MOL       0.119500
     45 H2          -4.3830     5.0120     2.4740 ha         1 MOL       0.119500
     46 H3          -2.6430     3.4690     1.9860 ha         1 MOL       0.123000
     47 H4          -1.1650     1.8630     2.2060 hc         1 MOL       0.068367
     48 H5          -0.9410     1.0950     0.6390 hc         1 MOL       0.068367
     49 H6          -0.9260     0.1380     2.1470 hc         1 MOL       0.068367
     50 H7          -3.6460    -2.5590     0.6370 ha         1 MOL       0.140000
     51 H8           2.4100    -2.3410    -0.8790 ha         1 MOL       0.159000
     52 H9          -0.2860     0.1680    -1.3200 hn         1 MOL       0.313700
     53 H10         -0.6720     2.5100    -3.3070 ha         1 MOL       0.124000
     54 H11         -1.8580     4.4690    -2.3380 hn         1 MOL       0.322500
     55 H12         -0.4140     5.4500     2.3300 hc         1 MOL       0.045700
     56 H13          1.3070     5.4460     1.9060 hc         1 MOL       0.045700
     57 H14          0.2670     6.7320     1.3120 hc         1 MOL       0.045700
     58 H15          2.5830     3.0750    -0.5280 ha         1 MOL       0.186000
     59 H16          1.2560     2.8130     2.2280 ha         1 MOL       0.138000
     60 H17          2.9550     2.2940     1.6760 ha         1 MOL       0.138000
     61 H18          3.7840     1.9190    -4.2260 hc         1 MOL       0.056367
     62 H19          3.6200     3.0580    -2.8700 hc         1 MOL       0.056367
     63 H20          2.4190     3.0310    -4.1690 hc         1 MOL       0.056367
     64 H21          4.1260    -1.4800    -2.3630 hc         1 MOL       0.045700
     65 H22          4.5770    -0.1260    -3.3640 hc         1 MOL       0.045700
     66 H23          4.5350     0.0740    -0.2880 hc         1 MOL       0.032200
     67 H24          5.9080    -0.6150    -1.1510 hc         1 MOL       0.032200
     68 H25          1.1900    -4.7830     1.7130 hc         1 MOL       0.058200
     69 H26          2.2560    -3.9470     0.6330 hc         1 MOL       0.058200
     70 H27          0.9020    -5.0940    -1.3390 hc         1 MOL       0.031700
     71 H28          2.0660    -6.0380    -0.4110 hc         1 MOL       0.031700
     72 H29         -2.5090    -4.7610     1.4210 hc         1 MOL       0.054700
     73 H30         -2.1340    -3.7280     2.8150 hc         1 MOL       0.054700
     74 H31         -1.0260    -5.0120     2.3560 hc         1 MOL       0.054700
     75 H32         -5.5240    -1.0320     1.0910 hn         1 MOL       0.326500
@<TRIPOS>BOND
     1     1     2 2   
     2     2     3 1   
     3     3     4 2   
     4     4     5 1   
     5     4     6 1   
     6     6     7 2   
     7     7     8 1   
     8     8     9 2   
     9     9    10 1   
    10    10    11 2   
    11    11    12 1   
    12    12    13 1   
    13    13    14 1   
    14    14    15 1   
    15    15    16 2   
    16    16    17 1   
    17    17    18 1   
    18    18    19 2   
    19    18    20 1   
    20    20    21 1   
    21    20    22 2   
    22    22    23 1   
    23    23    24 2   
    24    14    25 2   
    25    25    26 1   
    26    25    27 1   
    27    27    28 1   
    28    28    29 1   
    29    29    30 1   
    30    30    31 1   
    31    30    32 1   
    32    10    33 1   
    33    33    34 1   
    34    34    35 1   
    35    35    36 1   
    36    36    37 1   
    37    36    38 1   
    38    33    39 2   
    39    39    40 1   
    40     6    41 1   
    41    41    42 1   
    42    42    43 2   
    43    42     3 1   
    44    39     8 1   
    45    27    12 2   
    46    22    16 1   
    47     1    44 1   
    48     1    45 1   
    49     2    46 1   
    50     5    47 1   
    51     5    48 1   
    52     5    49 1   
    53     7    50 1   
    54    11    51 1   
    55    13    52 1   
    56    15    53 1   
    57    17    54 1   
    58    21    55 1   
    59    21    56 1   
    60    21    57 1   
    61    23    58 1   
    62    24    59 1   
    63    24    60 1   
    64    26    61 1   
    65    26    62 1   
    66    26    63 1   
    67    28    64 1   
    68    28    65 1   
    69    29    66 1   
    70    29    67 1   
    71    34    68 1   
    72    34    69 1   
    73    35    70 1   
    74    35    71 1   
    75    40    72 1   
    76    40    73 1   
    77    40    74 1   
    78    41    75 1   
@<TRIPOS>SUBSTRUCTURE
     1 MOL         1 TEMP              0 ****  ****    0 ROOT
