@<TRIPOS>MOLECULE
MOL
   65    66     1     0     0
SMALL
bcc


@<TRIPOS>ATOM
      1 C1          -1.7120    -4.6780    -0.2840 c3         1 MOL      -0.100100
      2 C2          -2.2840    -4.4780    -1.6810 c3         1 MOL      -0.077400
      3 C3          -1.2770    -3.8330    -2.6420 c3         1 MOL      -0.110700
      4 C4          -1.7040    -4.0530    -4.0950 c3         1 MOL      -0.091100
      5 C5          -1.1580    -2.3400    -2.3880 c          1 MOL       0.633100
      6 O1          -1.9200    -1.4950    -2.8380 o          1 MOL      -0.547000
      7 O2          -0.0690    -2.0760    -1.6150 os         1 MOL      -0.430900
      8 C6           0.2010    -0.6800    -1.3440 c3         1 MOL       0.158100
      9 C7           0.9980    -0.0710    -2.5000 c3         1 MOL      -0.142400
     10 C8           2.3290    -0.7940    -2.6970 c3         1 MOL       0.182300
     11 O3           3.2040     0.0080    -3.4820 oh         1 MOL      -0.601800
     12 C9           3.0280    -1.1080    -1.4120 c2         1 MOL      -0.168200
     13 C10          2.4500    -1.0110    -0.1990 ce         1 MOL      -0.052200
     14 C11          3.1940    -1.3730     0.9900 ce         1 MOL      -0.146000
     15 C12          2.6380    -1.4260     2.2060 c2         1 MOL      -0.142200
     16 C13          1.1830    -1.1410     2.4890 c3         1 MOL      -0.030500
     17 C14          1.0960     0.1800     3.2500 c3         1 MOL      -0.099100
     18 C15          0.3250    -1.2450     1.1910 c3         1 MOL      -0.044700
     19 C16         -1.1730    -0.8990     1.3970 c3         1 MOL      -0.074400
     20 C17         -1.5810     0.5850     1.3870 c3         1 MOL      -0.087400
     21 C18         -3.1090     0.7530     1.3500 c3         1 MOL       0.156100
     22 O4          -3.6690     0.0920     2.4850 oh         1 MOL      -0.640800
     23 C19         -3.5020     2.2400     1.3300 c3         1 MOL      -0.154400
     24 C20         -5.0160     2.4220     1.1310 c3         1 MOL       0.175100
     25 O5          -5.7170     1.8260     2.2300 oh         1 MOL      -0.664800
     26 C21         -5.4370     3.8740     0.9350 c3         1 MOL      -0.234400
     27 C22         -5.1090     4.7490     2.1390 c          1 MOL       0.908600
     28 O6          -5.3090     4.1960     3.2610 o          1 MOL      -0.846800
     29 O7          -4.6880     5.9060     1.8690 o          1 MOL      -0.846800
     30 C23          1.0050    -0.5370    -0.0170 c3         1 MOL      -0.018500
     31 H1          -0.7900    -5.2680    -0.3240 hc         1 MOL       0.040700
     32 H2          -1.4910    -3.7230     0.1990 hc         1 MOL       0.040700
     33 H3          -2.4320    -5.2130     0.3430 hc         1 MOL       0.040700
     34 H4          -2.5830    -5.4610    -2.0650 hc         1 MOL       0.052200
     35 H5          -3.1940    -3.8690    -1.6150 hc         1 MOL       0.052200
     36 H6          -0.2870    -4.2930    -2.5230 hc         1 MOL       0.081700
     37 H7          -1.7080    -5.1200    -4.3420 hc         1 MOL       0.044367
     38 H8          -2.7080    -3.6570    -4.2840 hc         1 MOL       0.044367
     39 H9          -1.0160    -3.5490    -4.7840 hc         1 MOL       0.044367
     40 H10         -0.7450    -0.1390    -1.2470 h1         1 MOL       0.083700
     41 H11          0.4290    -0.1310    -3.4370 hc         1 MOL       0.067700
     42 H12          1.1660     0.9990    -2.3170 hc         1 MOL       0.067700
     43 H13          2.1690    -1.7320    -3.2420 h1         1 MOL       0.037700
     44 H14          2.6890     0.3440    -4.2350 ho         1 MOL       0.399000
     45 H15          4.0520    -1.4580    -1.5100 ha         1 MOL       0.134000
     46 H16          4.2500    -1.6120     0.8810 ha         1 MOL       0.119000
     47 H17          3.2600    -1.6920     3.0580 ha         1 MOL       0.117000
     48 H18          0.8320    -1.9300     3.1690 hc         1 MOL       0.049700
     49 H19          1.2870     1.0400     2.5990 hc         1 MOL       0.048700
     50 H20          1.8270     0.2160     4.0670 hc         1 MOL       0.048700
     51 H21          0.1160     0.2960     3.7210 hc         1 MOL       0.048700
     52 H22          0.3270    -2.3210     0.9520 hc         1 MOL       0.049700
     53 H23         -1.7410    -1.4010     0.6040 hc         1 MOL       0.045200
     54 H24         -1.5100    -1.3620     2.3340 hc         1 MOL       0.045200
     55 H25         -1.1980     1.0850     2.2790 hc         1 MOL       0.046700
     56 H26         -1.1520     1.1020     0.5250 hc         1 MOL       0.046700
     57 H27         -3.5020     0.2610     0.4530 h1         1 MOL       0.018700
     58 H28         -4.5600     0.4920     2.6150 ho         1 MOL       0.437000
     59 H29         -2.9640     2.7540     0.5240 hc         1 MOL       0.073700
     60 H30         -3.2020     2.6880     2.2840 hc         1 MOL       0.073700
     61 H31         -5.3200     1.8640     0.2380 h1         1 MOL       0.023700
     62 H32         -5.7110     2.5370     2.9280 ho         1 MOL       0.457000
     63 H33         -6.5230     3.9280     0.7930 hc         1 MOL       0.038200
     64 H34         -4.9620     4.2830     0.0350 hc         1 MOL       0.038200
     65 H35          1.0700     0.5370     0.2110 hc         1 MOL       0.081700
@<TRIPOS>BOND
     1     1     2 1   
     2     2     3 1   
     3     3     4 1   
     4     3     5 1   
     5     5     6 2   
     6     5     7 1   
     7     7     8 1   
     8     8     9 1   
     9     9    10 1   
    10    10    11 1   
    11    10    12 1   
    12    12    13 2   
    13    13    14 1   
    14    14    15 2   
    15    15    16 1   
    16    16    17 1   
    17    16    18 1   
    18    18    19 1   
    19    19    20 1   
    20    20    21 1   
    21    21    22 1   
    22    21    23 1   
    23    23    24 1   
    24    24    25 1   
    25    24    26 1   
    26    26    27 1   
    27    27    28 1   
    28    27    29 1   
    29    18    30 1   
    30    30     8 1   
    31    30    13 1   
    32     1    31 1   
    33     1    32 1   
    34     1    33 1   
    35     2    34 1   
    36     2    35 1   
    37     3    36 1   
    38     4    37 1   
    39     4    38 1   
    40     4    39 1   
    41     8    40 1   
    42     9    41 1   
    43     9    42 1   
    44    10    43 1   
    45    11    44 1   
    46    12    45 1   
    47    14    46 1   
    48    15    47 1   
    49    16    48 1   
    50    17    49 1   
    51    17    50 1   
    52    17    51 1   
    53    18    52 1   
    54    19    53 1   
    55    19    54 1   
    56    20    55 1   
    57    20    56 1   
    58    21    57 1   
    59    22    58 1   
    60    23    59 1   
    61    23    60 1   
    62    24    61 1   
    63    25    62 1   
    64    26    63 1   
    65    26    64 1   
    66    30    65 1   
@<TRIPOS>SUBSTRUCTURE
     1 MOL         1 TEMP              0 ****  ****    0 ROOT
