
     RDKit          3D

 65 66  0  0  0  0  0  0  0  0999 V2000
   -1.7118   -4.6777   -0.2839 C   0  0  0  0  0  0  0  0  0  0  0  0
   -2.2835   -4.4776   -1.6805 C   0  0  0  0  0  0  0  0  0  0  0  0
   -1.2767   -3.8332   -2.6421 C   0  0  0  0  0  0  0  0  0  0  0  0
   -1.7035   -4.0526   -4.0951 C   0  0  0  0  0  0  0  0  0  0  0  0
   -1.1578   -2.3396   -2.3877 C   0  0  0  0  0  0  0  0  0  0  0  0
   -1.9200   -1.4953   -2.8385 O   0  0  0  0  0  0  0  0  0  0  0  0
   -0.0686   -2.0761   -1.6154 O   0  0  0  0  0  0  0  0  0  0  0  0
    0.2014   -0.6805   -1.3439 C   0  0  2  0  0  0  0  0  0  0  0  0
    0.9978   -0.0711   -2.5001 C   0  0  0  0  0  0  0  0  0  0  0  0
    2.3293   -0.7939   -2.6967 C   0  0  1  0  0  0  0  0  0  0  0  0
    3.2043    0.0084   -3.4818 O   0  0  0  0  0  0  0  0  0  0  0  0
    3.0278   -1.1081   -1.4118 C   0  0  0  0  0  0  0  0  0  0  0  0
    2.4496   -1.0113   -0.1991 C   0  0  0  0  0  0  0  0  0  0  0  0
    3.1939   -1.3728    0.9897 C   0  0  0  0  0  0  0  0  0  0  0  0
    2.6383   -1.4257    2.2060 C   0  0  0  0  0  0  0  0  0  0  0  0
    1.1828   -1.1409    2.4893 C   0  0  1  0  0  0  0  0  0  0  0  0
    1.0959    0.1801    3.2503 C   0  0  0  0  0  0  0  0  0  0  0  0
    0.3249   -1.2447    1.1908 C   0  0  1  0  0  0  0  0  0  0  0  0
   -1.1735   -0.8990    1.3973 C   0  0  0  0  0  0  0  0  0  0  0  0
   -1.5813    0.5847    1.3869 C   0  0  0  0  0  0  0  0  0  0  0  0
   -3.1091    0.7532    1.3504 C   0  0  1  0  0  0  0  0  0  0  0  0
   -3.6690    0.0919    2.4845 O   0  0  0  0  0  0  0  0  0  0  0  0
   -3.5022    2.2405    1.3296 C   0  0  0  0  0  0  0  0  0  0  0  0
   -5.0158    2.4224    1.1310 C   0  0  1  0  0  0  0  0  0  0  0  0
   -5.7172    1.8258    2.2304 O   0  0  0  0  0  0  0  0  0  0  0  0
   -5.4370    3.8745    0.9346 C   0  0  0  0  0  0  0  0  0  0  0  0
   -5.1086    4.7492    2.1387 C   0  0  0  0  0  0  0  0  0  0  0  0
   -5.3092    4.1957    3.2608 O   0  0  0  0  0  0  0  0  0  0  0  0
   -4.6883    5.9061    1.8685 O   0  0  0  0  0  0  0  0  0  0  0  0
    1.0052   -0.5371   -0.0174 C   0  0  2  0  0  0  0  0  0  0  0  0
   -0.7898   -5.2680   -0.3240 H   0  0  0  0  0  0  0  0  0  0  0  0
   -1.4908   -3.7226    0.1993 H   0  0  0  0  0  0  0  0  0  0  0  0
   -2.4319   -5.2134    0.3431 H   0  0  0  0  0  0  0  0  0  0  0  0
   -2.5826   -5.4609   -2.0650 H   0  0  0  0  0  0  0  0  0  0  0  0
   -3.1942   -3.8691   -1.6152 H   0  0  0  0  0  0  0  0  0  0  0  0
   -0.2874   -4.2925   -2.5229 H   0  0  0  0  0  0  0  0  0  0  0  0
   -1.7078   -5.1197   -4.3420 H   0  0  0  0  0  0  0  0  0  0  0  0
   -2.7085   -3.6568   -4.2841 H   0  0  0  0  0  0  0  0  0  0  0  0
   -1.0155   -3.5490   -4.7836 H   0  0  0  0  0  0  0  0  0  0  0  0
   -0.7449   -0.1385   -1.2471 H   0  0  0  0  0  0  0  0  0  0  0  0
    0.4293   -0.1306   -3.4372 H   0  0  0  0  0  0  0  0  0  0  0  0
    1.1658    0.9991   -2.3171 H   0  0  0  0  0  0  0  0  0  0  0  0
    2.1692   -1.7316   -3.2418 H   0  0  0  0  0  0  0  0  0  0  0  0
    2.6888    0.3441   -4.2348 H   0  0  0  0  0  0  0  0  0  0  0  0
    4.0520   -1.4577   -1.5104 H   0  0  0  0  0  0  0  0  0  0  0  0
    4.2501   -1.6122    0.8812 H   0  0  0  0  0  0  0  0  0  0  0  0
    3.2597   -1.6922    3.0581 H   0  0  0  0  0  0  0  0  0  0  0  0
    0.8320   -1.9303    3.1690 H   0  0  0  0  0  0  0  0  0  0  0  0
    1.2874    1.0402    2.5994 H   0  0  0  0  0  0  0  0  0  0  0  0
    1.8275    0.2159    4.0671 H   0  0  0  0  0  0  0  0  0  0  0  0
    0.1158    0.2961    3.7209 H   0  0  0  0  0  0  0  0  0  0  0  0
    0.3270   -2.3212    0.9519 H   0  0  0  0  0  0  0  0  0  0  0  0
   -1.7406   -1.4015    0.6041 H   0  0  0  0  0  0  0  0  0  0  0  0
   -1.5096   -1.3616    2.3343 H   0  0  0  0  0  0  0  0  0  0  0  0
   -1.1985    1.0851    2.2789 H   0  0  0  0  0  0  0  0  0  0  0  0
   -1.1518    1.1024    0.5251 H   0  0  0  0  0  0  0  0  0  0  0  0
   -3.5025    0.2608    0.4527 H   0  0  0  0  0  0  0  0  0  0  0  0
   -4.5597    0.4923    2.6145 H   0  0  0  0  0  0  0  0  0  0  0  0
   -2.9641    2.7537    0.5244 H   0  0  0  0  0  0  0  0  0  0  0  0
   -3.2024    2.6883    2.2843 H   0  0  0  0  0  0  0  0  0  0  0  0
   -5.3204    1.8638    0.2379 H   0  0  0  0  0  0  0  0  0  0  0  0
   -5.7113    2.5366    2.9281 H   0  0  0  0  0  0  0  0  0  0  0  0
   -6.5232    3.9280    0.7929 H   0  0  0  0  0  0  0  0  0  0  0  0
   -4.9624    4.2831    0.0346 H   0  0  0  0  0  0  0  0  0  0  0  0
    1.0701    0.5368    0.2109 H   0  0  0  0  0  0  0  0  0  0  0  0
  1  2  1  0
  2  3  1  0
  3  4  1  0
  3  5  1  0
  5  6  2  0
  5  7  1  0
  7  8  1  0
  8  9  1  0
  9 10  1  0
 10 11  1  0
 10 12  1  0
 12 13  2  0
 13 14  1  0
 14 15  2  0
 15 16  1  0
 16 17  1  0
 16 18  1  0
 18 19  1  0
 19 20  1  0
 20 21  1  0
 21 22  1  0
 21 23  1  0
 23 24  1  0
 24 25  1  0
 24 26  1  0
 26 27  1  0
 27 28  2  0
 27 29  1  0
 18 30  1  0
 30  8  1  0
 30 13  1  0
  1 31  1  0
  1 32  1  0
  1 33  1  0
  2 34  1  0
  2 35  1  0
  3 36  1  0
  4 37  1  0
  4 38  1  0
  4 39  1  0
  8 40  1  1
  9 41  1  0
  9 42  1  0
 10 43  1  6
 11 44  1  0
 12 45  1  0
 14 46  1  0
 15 47  1  0
 16 48  1  1
 17 49  1  0
 17 50  1  0
 17 51  1  0
 18 52  1  6
 19 53  1  0
 19 54  1  0
 20 55  1  0
 20 56  1  0
 21 57  1  6
 22 58  1  0
 23 59  1  0
 23 60  1  0
 24 61  1  6
 25 62  1  0
 26 63  1  0
 26 64  1  0
 30 65  1  1
M  CHG  1  29  -1
M  END
$$$$
