@<TRIPOS>MOLECULE
MOL
   70    75     1     0     0
SMALL
bcc


@<TRIPOS>ATOM
      1 C1           0.4470    -4.1650     1.1150 c2         1 MOL      -0.200000
      2 C2           0.8040    -3.3250     2.1020 c2         1 MOL      -0.149400
      3 C3           1.4390    -3.8460     3.3630 c3         1 MOL      -0.066900
      4 C4           0.5950    -1.8210     1.9820 c3         1 MOL       0.137300
      5 C5          -0.3810    -1.2580     3.0360 c3         1 MOL       0.125400
      6 O1          -1.7030    -1.7840     2.8480 os         1 MOL      -0.305900
      7 C6          -2.5990    -0.7820     2.5740 ca         1 MOL       0.080100
      8 C7          -2.7240    -0.2000     1.3100 ca         1 MOL       0.084100
      9 O2          -1.9820    -0.5040     0.2070 os         1 MOL      -0.194200
     10 C8          -2.4100     0.3060    -0.7940 cc         1 MOL       0.011100
     11 C9          -3.4250     1.1250    -0.3570 cd         1 MOL      -0.191200
     12 C10         -3.6440     0.8000     1.0070 ca         1 MOL      -0.114800
     13 C11         -4.5200     1.2460     2.0180 ca         1 MOL      -0.040000
     14 C12         -4.4400     0.6630     3.2940 ca         1 MOL      -0.160800
     15 C13         -5.3320     1.0820     4.3650 cc         1 MOL      -0.008200
     16 C14         -5.2310     0.5140     5.5710 cd         1 MOL      -0.256200
     17 C15         -4.2400    -0.5330     5.8720 c          1 MOL       0.718800
     18 O3          -4.1720    -1.0220     6.9940 o          1 MOL      -0.562500
     19 O4          -3.4050    -0.9170     4.8360 os         1 MOL      -0.316200
     20 C16         -3.4950    -0.3340     3.5500 ca         1 MOL       0.144100
     21 O5           1.8800    -1.2030     2.1600 os         1 MOL      -0.429600
     22 C17          2.3830    -0.3620     1.0890 c3         1 MOL       0.128800
     23 C18          1.4270     0.8100     0.8260 c3         1 MOL      -0.105600
     24 C19          3.6860     0.2170     1.6740 c3         1 MOL      -0.105600
     25 C20          2.6760    -1.2360    -0.1760 c3         1 MOL       0.117100
     26 O6           3.5590    -2.3120     0.1890 oh         1 MOL      -0.604800
     27 C21          3.2880    -0.4990    -1.3790 c3         1 MOL       0.128400
     28 O7           2.3190     0.3750    -1.9530 os         1 MOL      -0.301900
     29 C22          2.7100     1.1100    -3.0570 ca         1 MOL       0.127100
     30 C23          3.9650     1.1350    -3.6840 ca         1 MOL       0.031100
     31 O8           5.0770     0.4240    -3.3300 os         1 MOL      -0.203200
     32 C24          6.0670     0.7450    -4.1990 cc         1 MOL       0.001100
     33 C25          5.6200     1.6600    -5.1210 cd         1 MOL      -0.175200
     34 C26          4.2600     1.9220    -4.7990 ca         1 MOL      -0.090800
     35 C27          3.2570     2.7470    -5.3430 ca         1 MOL      -0.064000
     36 C28          1.9880     2.7530    -4.7500 ca         1 MOL      -0.137800
     37 C29          0.9210     3.5890    -5.2780 cc         1 MOL      -0.009200
     38 C30         -0.2840     3.5730    -4.7010 cd         1 MOL      -0.251200
     39 C31         -0.5870     2.7320    -3.5320 c          1 MOL       0.723800
     40 O9          -1.7080     2.7310    -3.0360 o          1 MOL      -0.588500
     41 O10          0.4490     1.9540    -3.0390 os         1 MOL      -0.303200
     42 C32          1.7390     1.9480    -3.6350 ca         1 MOL       0.129100
     43 H1          -0.0160    -3.8050     0.2000 ha         1 MOL       0.119500
     44 H2           0.5960    -5.2380     1.1960 ha         1 MOL       0.119500
     45 H3           0.7980    -3.6560     4.2290 hc         1 MOL       0.047700
     46 H4           2.4100    -3.3700     3.5350 hc         1 MOL       0.047700
     47 H5           1.6110    -4.9270     3.3170 hc         1 MOL       0.047700
     48 H6           0.1890    -1.6030     0.9910 h1         1 MOL       0.076700
     49 H7          -0.0580    -1.5260     4.0490 h1         1 MOL       0.077700
     50 H8          -0.3580    -0.1600     3.0150 h1         1 MOL       0.077700
     51 H9          -1.9000     0.1910    -1.7420 h4         1 MOL       0.229000
     52 H10         -3.9340     1.8670    -0.9560 ha         1 MOL       0.169000
     53 H11         -5.2450     2.0240     1.7980 ha         1 MOL       0.147000
     54 H12         -6.0710     1.8510     4.1700 ha         1 MOL       0.147000
     55 H13         -5.8780     0.7990     6.3920 ha         1 MOL       0.169000
     56 H14          0.5320     0.4870     0.2890 hc         1 MOL       0.051033
     57 H15          1.9020     1.6000     0.2370 hc         1 MOL       0.051033
     58 H16          1.0900     1.2580     1.7680 hc         1 MOL       0.051033
     59 H17          3.4840     0.7400     2.6170 hc         1 MOL       0.051033
     60 H18          4.1680     0.9260     0.9950 hc         1 MOL       0.051033
     61 H19          4.4020    -0.5750     1.9170 hc         1 MOL       0.051033
     62 H20          1.7460    -1.7060    -0.5150 h1         1 MOL       0.065700
     63 H21          3.2040    -2.6680     1.0270 ho         1 MOL       0.425000
     64 H22          3.5920    -1.2480    -2.1210 h1         1 MOL       0.068200
     65 H23          4.1780     0.0540    -1.0620 h1         1 MOL       0.068200
     66 H24          7.0130     0.2470    -4.0340 h4         1 MOL       0.198000
     67 H25          6.2000     2.0860    -5.9260 ha         1 MOL       0.171000
     68 H26          3.4760     3.3630    -6.2110 ha         1 MOL       0.150000
     69 H27          1.1170     4.2180    -6.1400 ha         1 MOL       0.151000
     70 H28         -1.1010     4.1810    -5.0680 ha         1 MOL       0.172000
@<TRIPOS>BOND
     1     1     2 2   
     2     2     3 1   
     3     2     4 1   
     4     4     5 1   
     5     5     6 1   
     6     6     7 1   
     7     7     8 ar  
     8     8     9 1   
     9     9    10 1   
    10    10    11 2   
    11    11    12 1   
    12    12    13 ar  
    13    13    14 ar  
    14    14    15 1   
    15    15    16 2   
    16    16    17 1   
    17    17    18 2   
    18    17    19 1   
    19    19    20 1   
    20     4    21 1   
    21    21    22 1   
    22    22    23 1   
    23    22    24 1   
    24    22    25 1   
    25    25    26 1   
    26    25    27 1   
    27    27    28 1   
    28    28    29 1   
    29    29    30 ar  
    30    30    31 1   
    31    31    32 1   
    32    32    33 2   
    33    33    34 1   
    34    34    35 ar  
    35    35    36 ar  
    36    36    37 1   
    37    37    38 2   
    38    38    39 1   
    39    39    40 2   
    40    39    41 1   
    41    41    42 1   
    42    20     7 ar  
    43    42    29 ar  
    44    12     8 ar  
    45    20    14 ar  
    46    34    30 ar  
    47    42    36 ar  
    48     1    43 1   
    49     1    44 1   
    50     3    45 1   
    51     3    46 1   
    52     3    47 1   
    53     4    48 1   
    54     5    49 1   
    55     5    50 1   
    56    10    51 1   
    57    11    52 1   
    58    13    53 1   
    59    15    54 1   
    60    16    55 1   
    61    23    56 1   
    62    23    57 1   
    63    23    58 1   
    64    24    59 1   
    65    24    60 1   
    66    24    61 1   
    67    25    62 1   
    68    26    63 1   
    69    27    64 1   
    70    27    65 1   
    71    32    66 1   
    72    33    67 1   
    73    35    68 1   
    74    37    69 1   
    75    38    70 1   
@<TRIPOS>SUBSTRUCTURE
     1 MOL         1 TEMP              0 ****  ****    0 ROOT
