
     RDKit          3D

 70 75  0  0  0  0  0  0  0  0999 V2000
    0.4467   -4.1652    1.1145 C   0  0  0  0  0  0  0  0  0  0  0  0
    0.8043   -3.3250    2.1021 C   0  0  0  0  0  0  0  0  0  0  0  0
    1.4391   -3.8456    3.3634 C   0  0  0  0  0  0  0  0  0  0  0  0
    0.5954   -1.8209    1.9824 C   0  0  0  0  0  0  0  0  0  0  0  0
   -0.3811   -1.2582    3.0362 C   0  0  0  0  0  0  0  0  0  0  0  0
   -1.7033   -1.7845    2.8480 O   0  0  0  0  0  0  0  0  0  0  0  0
   -2.5991   -0.7817    2.5737 C   0  0  0  0  0  0  0  0  0  0  0  0
   -2.7243   -0.2003    1.3105 C   0  0  0  0  0  0  0  0  0  0  0  0
   -1.9825   -0.5037    0.2075 O   0  0  0  0  0  0  0  0  0  0  0  0
   -2.4097    0.3057   -0.7945 C   0  0  0  0  0  0  0  0  0  0  0  0
   -3.4246    1.1248   -0.3571 C   0  0  0  0  0  0  0  0  0  0  0  0
   -3.6445    0.7996    1.0072 C   0  0  0  0  0  0  0  0  0  0  0  0
   -4.5200    1.2459    2.0175 C   0  0  0  0  0  0  0  0  0  0  0  0
   -4.4400    0.6635    3.2936 C   0  0  0  0  0  0  0  0  0  0  0  0
   -5.3315    1.0820    4.3654 C   0  0  0  0  0  0  0  0  0  0  0  0
   -5.2311    0.5140    5.5706 C   0  0  0  0  0  0  0  0  0  0  0  0
   -4.2402   -0.5328    5.8722 C   0  0  0  0  0  0  0  0  0  0  0  0
   -4.1716   -1.0223    6.9935 O   0  0  0  0  0  0  0  0  0  0  0  0
   -3.4045   -0.9172    4.8358 O   0  0  0  0  0  0  0  0  0  0  0  0
   -3.4949   -0.3335    3.5499 C   0  0  0  0  0  0  0  0  0  0  0  0
    1.8800   -1.2034    2.1604 O   0  0  0  0  0  0  0  0  0  0  0  0
    2.3827   -0.3622    1.0888 C   0  0  0  0  0  0  0  0  0  0  0  0
    1.4273    0.8098    0.8264 C   0  0  0  0  0  0  0  0  0  0  0  0
    3.6859    0.2171    1.6741 C   0  0  0  0  0  0  0  0  0  0  0  0
    2.6760   -1.2356   -0.1759 C   0  0  0  0  0  0  0  0  0  0  0  0
    3.5592   -2.3120    0.1885 O   0  0  0  0  0  0  0  0  0  0  0  0
    3.2880   -0.4990   -1.3788 C   0  0  0  0  0  0  0  0  0  0  0  0
    2.3191    0.3754   -1.9531 O   0  0  0  0  0  0  0  0  0  0  0  0
    2.7103    1.1104   -3.0574 C   0  0  0  0  0  0  0  0  0  0  0  0
    3.9648    1.1352   -3.6839 C   0  0  0  0  0  0  0  0  0  0  0  0
    5.0772    0.4245   -3.3301 O   0  0  0  0  0  0  0  0  0  0  0  0
    6.0668    0.7446   -4.1995 C   0  0  0  0  0  0  0  0  0  0  0  0
    5.6197    1.6598   -5.1209 C   0  0  0  0  0  0  0  0  0  0  0  0
    4.2604    1.9218   -4.7988 C   0  0  0  0  0  0  0  0  0  0  0  0
    3.2571    2.7467   -5.3432 C   0  0  0  0  0  0  0  0  0  0  0  0
    1.9884    2.7532   -4.7497 C   0  0  0  0  0  0  0  0  0  0  0  0
    0.9206    3.5892   -5.2782 C   0  0  0  0  0  0  0  0  0  0  0  0
   -0.2837    3.5732   -4.7006 C   0  0  0  0  0  0  0  0  0  0  0  0
   -0.5866    2.7317   -3.5322 C   0  0  0  0  0  0  0  0  0  0  0  0
   -1.7076    2.7307   -3.0362 O   0  0  0  0  0  0  0  0  0  0  0  0
    0.4491    1.9543   -3.0393 O   0  0  0  0  0  0  0  0  0  0  0  0
    1.7388    1.9482   -3.6351 C   0  0  0  0  0  0  0  0  0  0  0  0
   -0.0161   -3.8051    0.2000 H   0  0  0  0  0  0  0  0  0  0  0  0
    0.5956   -5.2378    1.1961 H   0  0  0  0  0  0  0  0  0  0  0  0
    0.7976   -3.6557    4.2288 H   0  0  0  0  0  0  0  0  0  0  0  0
    2.4099   -3.3702    3.5347 H   0  0  0  0  0  0  0  0  0  0  0  0
    1.6112   -4.9266    3.3169 H   0  0  0  0  0  0  0  0  0  0  0  0
    0.1885   -1.6034    0.9912 H   0  0  0  0  0  0  0  0  0  0  0  0
   -0.0577   -1.5263    4.0489 H   0  0  0  0  0  0  0  0  0  0  0  0
   -0.3582   -0.1598    3.0148 H   0  0  0  0  0  0  0  0  0  0  0  0
   -1.9004    0.1906   -1.7416 H   0  0  0  0  0  0  0  0  0  0  0  0
   -3.9344    1.8668   -0.9558 H   0  0  0  0  0  0  0  0  0  0  0  0
   -5.2453    2.0243    1.7984 H   0  0  0  0  0  0  0  0  0  0  0  0
   -6.0705    1.8515    4.1703 H   0  0  0  0  0  0  0  0  0  0  0  0
   -5.8775    0.7986    6.3919 H   0  0  0  0  0  0  0  0  0  0  0  0
    0.5323    0.4869    0.2890 H   0  0  0  0  0  0  0  0  0  0  0  0
    1.9021    1.6004    0.2368 H   0  0  0  0  0  0  0  0  0  0  0  0
    1.0904    1.2575    1.7678 H   0  0  0  0  0  0  0  0  0  0  0  0
    3.4836    0.7401    2.6169 H   0  0  0  0  0  0  0  0  0  0  0  0
    4.1682    0.9264    0.9953 H   0  0  0  0  0  0  0  0  0  0  0  0
    4.4022   -0.5754    1.9175 H   0  0  0  0  0  0  0  0  0  0  0  0
    1.7465   -1.7055   -0.5147 H   0  0  0  0  0  0  0  0  0  0  0  0
    3.2037   -2.6680    1.0269 H   0  0  0  0  0  0  0  0  0  0  0  0
    3.5925   -1.2485   -2.1206 H   0  0  0  0  0  0  0  0  0  0  0  0
    4.1785    0.0539   -1.0625 H   0  0  0  0  0  0  0  0  0  0  0  0
    7.0126    0.2470   -4.0340 H   0  0  0  0  0  0  0  0  0  0  0  0
    6.2005    2.0861   -5.9265 H   0  0  0  0  0  0  0  0  0  0  0  0
    3.4757    3.3632   -6.2106 H   0  0  0  0  0  0  0  0  0  0  0  0
    1.1172    4.2178   -6.1402 H   0  0  0  0  0  0  0  0  0  0  0  0
   -1.1015    4.1808   -5.0684 H   0  0  0  0  0  0  0  0  0  0  0  0
  1  2  2  0
  2  3  1  0
  2  4  1  0
  4  5  1  0
  5  6  1  0
  6  7  1  0
  7  8  2  0
  8  9  1  0
  9 10  1  0
 10 11  2  0
 11 12  1  0
 12 13  2  0
 13 14  1  0
 14 15  1  0
 15 16  2  0
 16 17  1  0
 17 18  2  0
 17 19  1  0
 19 20  1  0
  4 21  1  0
 21 22  1  0
 22 23  1  0
 22 24  1  0
 22 25  1  0
 25 26  1  0
 25 27  1  0
 27 28  1  0
 28 29  1  0
 29 30  2  0
 30 31  1  0
 31 32  1  0
 32 33  2  0
 33 34  1  0
 34 35  2  0
 35 36  1  0
 36 37  1  0
 37 38  2  0
 38 39  1  0
 39 40  2  0
 39 41  1  0
 41 42  1  0
 20  7  1  0
 42 29  1  0
 12  8  1  0
 20 14  2  0
 34 30  1  0
 42 36  2  0
  1 43  1  0
  1 44  1  0
  3 45  1  0
  3 46  1  0
  3 47  1  0
  4 48  1  0
  5 49  1  0
  5 50  1  0
 10 51  1  0
 11 52  1  0
 13 53  1  0
 15 54  1  0
 16 55  1  0
 23 56  1  0
 23 57  1  0
 23 58  1  0
 24 59  1  0
 24 60  1  0
 24 61  1  0
 25 62  1  0
 26 63  1  0
 27 64  1  0
 27 65  1  0
 32 66  1  0
 33 67  1  0
 35 68  1  0
 37 69  1  0
 38 70  1  0
M  END
$$$$
