@<TRIPOS>MOLECULE
MOL
   91    93     1     0     0
SMALL
bcc


@<TRIPOS>ATOM
      1 C1           0.0500    -4.2360     0.2900 c3         1 MOL      -0.095600
      2 C2           1.0530    -5.2810    -0.2030 c3         1 MOL      -0.086700
      3 C3           1.7780    -5.9090     0.9890 c3         1 MOL      -0.095600
      4 C4           2.0770    -4.6870    -1.1830 c3         1 MOL       0.078000
      5 N1           1.4600    -4.2640    -2.4310 ns         1 MOL      -0.525900
      6 C5           1.1580    -2.9490    -2.6830 c          1 MOL       0.644100
      7 O1           1.3790    -2.0280    -1.8950 o          1 MOL      -0.602100
      8 C6           0.4450    -2.6520    -4.0190 c3         1 MOL       0.043500
      9 C7           1.3720    -2.8680    -5.2030 c3         1 MOL      -0.125100
     10 N2          -0.0160    -1.2210    -4.0060 ny         1 MOL      -0.750000
     11 C8          -1.1960    -0.8490    -4.8330 c3         1 MOL       0.103800
     12 C9          -1.6260     0.6340    -4.6190 c3         1 MOL       0.099700
     13 C10         -0.8540     1.6070    -5.5510 c3         1 MOL      -0.060100
     14 C11          0.6490     1.5380    -5.4190 ca         1 MOL      -0.125300
     15 C12          1.2990     2.0850    -4.3050 ca         1 MOL      -0.145500
     16 C13          2.6810     1.9580    -4.1590 ca         1 MOL      -0.117500
     17 C14          3.4280     1.2960    -5.1310 ca         1 MOL      -0.109000
     18 C15          2.7970     0.7730    -6.2570 ca         1 MOL      -0.117500
     19 C16          1.4150     0.8940    -6.4040 ca         1 MOL      -0.145500
     20 N3          -1.6310     1.1340    -3.2280 ns         1 MOL      -0.578900
     21 C17         -1.8310     0.3820    -2.0920 c          1 MOL       0.688700
     22 O2          -1.7750    -0.8430    -2.0970 o          1 MOL      -0.659100
     23 C18         -1.9760     1.1280    -0.8200 ca         1 MOL      -0.151600
     24 C19         -1.3810     0.6170     0.3390 ca         1 MOL      -0.060000
     25 C20         -1.4180     1.3670     1.5200 ca         1 MOL      -0.126600
     26 C21         -0.7550     0.9120     2.7710 c          1 MOL       0.667700
     27 O3          -0.3700     1.7480     3.5800 o          1 MOL      -0.595100
     28 N4          -0.6320    -0.4450     2.9560 ns         1 MOL      -0.564900
     29 C22          0.0010    -0.9980     4.1470 c3         1 MOL       0.157000
     30 C23          1.5260    -0.9240     4.0230 c3         1 MOL      -0.109100
     31 C24         -0.5570    -2.3920     4.3970 ca         1 MOL      -0.123300
     32 C25         -1.8490    -2.5070     4.9490 ca         1 MOL      -0.094500
     33 C26         -2.4240    -3.7590     5.1750 ca         1 MOL      -0.166000
     34 C27         -1.7130    -4.9050     4.8490 ca         1 MOL       0.139900
     35 F1          -2.2630    -6.1070     5.0600 f          1 MOL      -0.131900
     36 C28         -0.4390    -4.8220     4.3030 ca         1 MOL      -0.166000
     37 C29          0.1370    -3.5690     4.0720 ca         1 MOL      -0.094500
     38 C30         -2.0280     2.6320     1.5280 ca         1 MOL      -0.065000
     39 C31         -2.6460     3.1200     0.3770 ca         1 MOL       0.138600
     40 N5          -3.1770     4.4500     0.3030 nh         1 MOL      -0.681900
     41 C32         -4.0030     4.9490     1.4190 c3         1 MOL       0.185100
     42 S1          -2.2490     5.6000    -0.5550 s6         1 MOL       1.462900
     43 C33         -1.0260     6.0810     0.6500 c3         1 MOL      -0.376300
     44 O4          -1.5680     4.9290    -1.6490 o          1 MOL      -0.652300
     45 O5          -3.0940     6.7470    -0.8100 o          1 MOL      -0.652300
     46 C34         -2.6420     2.3540    -0.7880 ca         1 MOL      -0.096000
     47 H1          -0.6420    -4.6770     1.0160 hc         1 MOL       0.043533
     48 H2           0.5560    -3.3930     0.7720 hc         1 MOL       0.043533
     49 H3          -0.5540    -3.8440    -0.5340 hc         1 MOL       0.043533
     50 H4           0.4920    -6.0730    -0.7150 hc         1 MOL       0.051700
     51 H5           2.4790    -6.6810     0.6560 hc         1 MOL       0.043533
     52 H6           2.3420    -5.1570     1.5520 hc         1 MOL       0.043533
     53 H7           1.0640    -6.3800     1.6730 hc         1 MOL       0.043533
     54 H8           2.8200    -5.4450    -1.4550 h1         1 MOL       0.079200
     55 H9           2.6110    -3.8460    -0.7270 h1         1 MOL       0.079200
     56 H10          1.2480    -4.9910    -3.1040 hn         1 MOL       0.320500
     57 H11         -0.4490    -3.2830    -4.0830 hx         1 MOL       0.114700
     58 H12          2.2780    -2.2600    -5.1140 hc         1 MOL       0.078033
     59 H13          0.8810    -2.6160    -6.1480 hc         1 MOL       0.078033
     60 H14          1.6900    -3.9140    -5.2630 hc         1 MOL       0.078033
     61 H15          0.7840    -0.5800    -4.1020 hn         1 MOL       0.476300
     62 H16         -0.3150    -1.0680    -3.0210 hn         1 MOL       0.476300
     63 H17         -2.0100    -1.5190    -4.5340 hx         1 MOL       0.109200
     64 H18         -0.9560    -1.0520    -5.8810 hx         1 MOL       0.109200
     65 H19         -2.6790     0.6970    -4.9260 h1         1 MOL       0.081700
     66 H20         -1.1750     2.6410    -5.3680 hc         1 MOL       0.081700
     67 H21         -1.1330     1.3910    -6.5900 hc         1 MOL       0.081700
     68 H22          0.7450     2.6320    -3.5440 ha         1 MOL       0.137500
     69 H23          3.1810     2.3950    -3.2970 ha         1 MOL       0.150000
     70 H24          4.5090     1.2180    -5.0250 ha         1 MOL       0.154000
     71 H25          3.3900     0.2900    -7.0320 ha         1 MOL       0.150000
     72 H26          0.9490     0.4960    -7.3030 ha         1 MOL       0.137500
     73 H27         -1.6260     2.1470    -3.1210 hn         1 MOL       0.349500
     74 H28         -0.8470    -0.3290     0.2930 ha         1 MOL       0.156000
     75 H29         -1.0370    -1.1010     2.3040 hn         1 MOL       0.316500
     76 H30         -0.2780    -0.3700     5.0040 h1         1 MOL       0.080700
     77 H31          2.0170    -1.3800     4.8890 hc         1 MOL       0.050367
     78 H32          1.8610     0.1170     3.9600 hc         1 MOL       0.050367
     79 H33          1.8840    -1.4270     3.1170 hc         1 MOL       0.050367
     80 H34         -2.4130    -1.6130     5.2090 ha         1 MOL       0.139500
     81 H35         -3.4170    -3.8460     5.6050 ha         1 MOL       0.152500
     82 H36          0.0990    -5.7330     4.0620 ha         1 MOL       0.152500
     83 H37          1.1330    -3.5350     3.6390 ha         1 MOL       0.139500
     84 H38         -2.0000     3.2290     2.4370 ha         1 MOL       0.178000
     85 H39         -4.7130     4.1770     1.7350 h1         1 MOL       0.062033
     86 H40         -4.5950     5.8130     1.1050 h1         1 MOL       0.062033
     87 H41         -3.3860     5.2280     2.2770 h1         1 MOL       0.062033
     88 H42         -0.3740     6.8220     0.1810 h1         1 MOL       0.126700
     89 H43         -0.4380     5.2080     0.9360 h1         1 MOL       0.126700
     90 H44         -1.5220     6.5270     1.5130 h1         1 MOL       0.126700
     91 H45         -3.1370     2.7460    -1.6730 ha         1 MOL       0.167000
@<TRIPOS>BOND
     1     1     2 1   
     2     2     3 1   
     3     2     4 1   
     4     4     5 1   
     5     5     6 1   
     6     6     7 2   
     7     6     8 1   
     8     8     9 1   
     9     8    10 1   
    10    10    11 1   
    11    11    12 1   
    12    12    13 1   
    13    13    14 1   
    14    14    15 ar  
    15    15    16 ar  
    16    16    17 ar  
    17    17    18 ar  
    18    18    19 ar  
    19    12    20 1   
    20    20    21 1   
    21    21    22 2   
    22    21    23 1   
    23    23    24 ar  
    24    24    25 ar  
    25    25    26 1   
    26    26    27 2   
    27    26    28 1   
    28    28    29 1   
    29    29    30 1   
    30    29    31 1   
    31    31    32 ar  
    32    32    33 ar  
    33    33    34 ar  
    34    34    35 1   
    35    34    36 ar  
    36    36    37 ar  
    37    25    38 ar  
    38    38    39 ar  
    39    39    40 1   
    40    40    41 1   
    41    40    42 1   
    42    42    43 1   
    43    42    44 2   
    44    42    45 2   
    45    39    46 ar  
    46    19    14 ar  
    47    46    23 ar  
    48    37    31 ar  
    49     1    47 1   
    50     1    48 1   
    51     1    49 1   
    52     2    50 1   
    53     3    51 1   
    54     3    52 1   
    55     3    53 1   
    56     4    54 1   
    57     4    55 1   
    58     5    56 1   
    59     8    57 1   
    60     9    58 1   
    61     9    59 1   
    62     9    60 1   
    63    10    61 1   
    64    10    62 1   
    65    11    63 1   
    66    11    64 1   
    67    12    65 1   
    68    13    66 1   
    69    13    67 1   
    70    15    68 1   
    71    16    69 1   
    72    17    70 1   
    73    18    71 1   
    74    19    72 1   
    75    20    73 1   
    76    24    74 1   
    77    28    75 1   
    78    29    76 1   
    79    30    77 1   
    80    30    78 1   
    81    30    79 1   
    82    32    80 1   
    83    33    81 1   
    84    36    82 1   
    85    37    83 1   
    86    38    84 1   
    87    41    85 1   
    88    41    86 1   
    89    41    87 1   
    90    43    88 1   
    91    43    89 1   
    92    43    90 1   
    93    46    91 1   
@<TRIPOS>SUBSTRUCTURE
     1 MOL         1 TEMP              0 ****  ****    0 ROOT
