
     RDKit          3D

 91 93  0  0  0  0  0  0  0  0999 V2000
    0.0495   -4.2362    0.2905 C   0  0  0  0  0  0  0  0  0  0  0  0
    1.0531   -5.2811   -0.2029 C   0  0  0  0  0  0  0  0  0  0  0  0
    1.7777   -5.9085    0.9890 C   0  0  0  0  0  0  0  0  0  0  0  0
    2.0768   -4.6872   -1.1833 C   0  0  0  0  0  0  0  0  0  0  0  0
    1.4604   -4.2640   -2.4311 N   0  0  0  0  0  0  0  0  0  0  0  0
    1.1579   -2.9485   -2.6834 C   0  0  0  0  0  0  0  0  0  0  0  0
    1.3792   -2.0277   -1.8955 O   0  0  0  0  0  0  0  0  0  0  0  0
    0.4447   -2.6518   -4.0193 C   0  0  2  0  0  0  0  0  0  0  0  0
    1.3717   -2.8682   -5.2030 C   0  0  0  0  0  0  0  0  0  0  0  0
   -0.0162   -1.2208   -4.0058 N   0  0  0  0  0  0  0  0  0  0  0  0
   -1.1958   -0.8488   -4.8329 C   0  0  0  0  0  0  0  0  0  0  0  0
   -1.6264    0.6345   -4.6194 C   0  0  2  0  0  0  0  0  0  0  0  0
   -0.8540    1.6066   -5.5506 C   0  0  0  0  0  0  0  0  0  0  0  0
    0.6490    1.5376   -5.4194 C   0  0  0  0  0  0  0  0  0  0  0  0
    1.2993    2.0854   -4.3047 C   0  0  0  0  0  0  0  0  0  0  0  0
    2.6810    1.9575   -4.1593 C   0  0  0  0  0  0  0  0  0  0  0  0
    3.4283    1.2964   -5.1312 C   0  0  0  0  0  0  0  0  0  0  0  0
    2.7975    0.7728   -6.2570 C   0  0  0  0  0  0  0  0  0  0  0  0
    1.4153    0.8942   -6.4035 C   0  0  0  0  0  0  0  0  0  0  0  0
   -1.6311    1.1337   -3.2283 N   0  0  0  0  0  0  0  0  0  0  0  0
   -1.8312    0.3821   -2.0918 C   0  0  0  0  0  0  0  0  0  0  0  0
   -1.7754   -0.8429   -2.0970 O   0  0  0  0  0  0  0  0  0  0  0  0
   -1.9757    1.1283   -0.8202 C   0  0  0  0  0  0  0  0  0  0  0  0
   -1.3815    0.6166    0.3388 C   0  0  0  0  0  0  0  0  0  0  0  0
   -1.4179    1.3673    1.5199 C   0  0  0  0  0  0  0  0  0  0  0  0
   -0.7547    0.9123    2.7708 C   0  0  0  0  0  0  0  0  0  0  0  0
   -0.3699    1.7476    3.5805 O   0  0  0  0  0  0  0  0  0  0  0  0
   -0.6318   -0.4448    2.9559 N   0  0  0  0  0  0  0  0  0  0  0  0
    0.0010   -0.9981    4.1473 C   0  0  2  0  0  0  0  0  0  0  0  0
    1.5258   -0.9241    4.0227 C   0  0  0  0  0  0  0  0  0  0  0  0
   -0.5572   -2.3920    4.3973 C   0  0  0  0  0  0  0  0  0  0  0  0
   -1.8490   -2.5072    4.9490 C   0  0  0  0  0  0  0  0  0  0  0  0
   -2.4237   -3.7590    5.1753 C   0  0  0  0  0  0  0  0  0  0  0  0
   -1.7126   -4.9050    4.8495 C   0  0  0  0  0  0  0  0  0  0  0  0
   -2.2627   -6.1075    5.0596 F   0  0  0  0  0  0  0  0  0  0  0  0
   -0.4390   -4.8217    4.3028 C   0  0  0  0  0  0  0  0  0  0  0  0
    0.1365   -3.5692    4.0715 C   0  0  0  0  0  0  0  0  0  0  0  0
   -2.0280    2.6320    1.5275 C   0  0  0  0  0  0  0  0  0  0  0  0
   -2.6460    3.1197    0.3772 C   0  0  0  0  0  0  0  0  0  0  0  0
   -3.1771    4.4496    0.3028 N   0  0  0  0  0  0  0  0  0  0  0  0
   -4.0028    4.9487    1.4190 C   0  0  0  0  0  0  0  0  0  0  0  0
   -2.2495    5.5998   -0.5554 S   0  0  0  0  0  0  0  0  0  0  0  0
   -1.0260    6.0810    0.6499 C   0  0  0  0  0  0  0  0  0  0  0  0
   -1.5684    4.9293   -1.6494 O   0  0  0  0  0  0  0  0  0  0  0  0
   -3.0943    6.7467   -0.8098 O   0  0  0  0  0  0  0  0  0  0  0  0
   -2.6416    2.3537   -0.7880 C   0  0  0  0  0  0  0  0  0  0  0  0
   -0.6421   -4.6766    1.0163 H   0  0  0  0  0  0  0  0  0  0  0  0
    0.5564   -3.3933    0.7724 H   0  0  0  0  0  0  0  0  0  0  0  0
   -0.5542   -3.8444   -0.5339 H   0  0  0  0  0  0  0  0  0  0  0  0
    0.4916   -6.0734   -0.7148 H   0  0  0  0  0  0  0  0  0  0  0  0
    2.4788   -6.6810    0.6561 H   0  0  0  0  0  0  0  0  0  0  0  0
    2.3421   -5.1573    1.5519 H   0  0  0  0  0  0  0  0  0  0  0  0
    1.0643   -6.3803    1.6727 H   0  0  0  0  0  0  0  0  0  0  0  0
    2.8199   -5.4454   -1.4547 H   0  0  0  0  0  0  0  0  0  0  0  0
    2.6114   -3.8464   -0.7270 H   0  0  0  0  0  0  0  0  0  0  0  0
    1.2485   -4.9910   -3.1045 H   0  0  0  0  0  0  0  0  0  0  0  0
   -0.4485   -3.2829   -4.0828 H   0  0  0  0  0  0  0  0  0  0  0  0
    2.2784   -2.2596   -5.1141 H   0  0  0  0  0  0  0  0  0  0  0  0
    0.8809   -2.6164   -6.1484 H   0  0  0  0  0  0  0  0  0  0  0  0
    1.6895   -3.9145   -5.2628 H   0  0  0  0  0  0  0  0  0  0  0  0
    0.7844   -0.5800   -4.1017 H   0  0  0  0  0  0  0  0  0  0  0  0
   -0.3149   -1.0684   -3.0207 H   0  0  0  0  0  0  0  0  0  0  0  0
   -2.0100   -1.5186   -4.5343 H   0  0  0  0  0  0  0  0  0  0  0  0
   -0.9561   -1.0522   -5.8812 H   0  0  0  0  0  0  0  0  0  0  0  0
   -2.6792    0.6973   -4.9260 H   0  0  0  0  0  0  0  0  0  0  0  0
   -1.1749    2.6406   -5.3679 H   0  0  0  0  0  0  0  0  0  0  0  0
   -1.1333    1.3911   -6.5905 H   0  0  0  0  0  0  0  0  0  0  0  0
    0.7450    2.6324   -3.5438 H   0  0  0  0  0  0  0  0  0  0  0  0
    3.1809    2.3946   -3.2968 H   0  0  0  0  0  0  0  0  0  0  0  0
    4.5086    1.2183   -5.0252 H   0  0  0  0  0  0  0  0  0  0  0  0
    3.3898    0.2898   -7.0318 H   0  0  0  0  0  0  0  0  0  0  0  0
    0.9494    0.4960   -7.3034 H   0  0  0  0  0  0  0  0  0  0  0  0
   -1.6256    2.1470   -3.1210 H   0  0  0  0  0  0  0  0  0  0  0  0
   -0.8470   -0.3291    0.2930 H   0  0  0  0  0  0  0  0  0  0  0  0
   -1.0368   -1.1011    2.3040 H   0  0  0  0  0  0  0  0  0  0  0  0
   -0.2775   -0.3700    5.0043 H   0  0  0  0  0  0  0  0  0  0  0  0
    2.0170   -1.3803    4.8890 H   0  0  0  0  0  0  0  0  0  0  0  0
    1.8609    0.1172    3.9604 H   0  0  0  0  0  0  0  0  0  0  0  0
    1.8841   -1.4265    3.1169 H   0  0  0  0  0  0  0  0  0  0  0  0
   -2.4133   -1.6125    5.2094 H   0  0  0  0  0  0  0  0  0  0  0  0
   -3.4165   -3.8457    5.6053 H   0  0  0  0  0  0  0  0  0  0  0  0
    0.0988   -5.7333    4.0620 H   0  0  0  0  0  0  0  0  0  0  0  0
    1.1330   -3.5355    3.6390 H   0  0  0  0  0  0  0  0  0  0  0  0
   -1.9999    3.2292    2.4365 H   0  0  0  0  0  0  0  0  0  0  0  0
   -4.7130    4.1770    1.7354 H   0  0  0  0  0  0  0  0  0  0  0  0
   -4.5954    5.8126    1.1048 H   0  0  0  0  0  0  0  0  0  0  0  0
   -3.3862    5.2282    2.2775 H   0  0  0  0  0  0  0  0  0  0  0  0
   -0.3741    6.8220    0.1812 H   0  0  0  0  0  0  0  0  0  0  0  0
   -0.4382    5.2076    0.9356 H   0  0  0  0  0  0  0  0  0  0  0  0
   -1.5219    6.5265    1.5131 H   0  0  0  0  0  0  0  0  0  0  0  0
   -3.1369    2.7463   -1.6732 H   0  0  0  0  0  0  0  0  0  0  0  0
  1  2  1  0
  2  3  1  0
  2  4  1  0
  4  5  1  0
  5  6  1  0
  6  7  2  0
  6  8  1  0
  8  9  1  0
  8 10  1  0
 10 11  1  0
 11 12  1  0
 12 13  1  0
 13 14  1  0
 14 15  2  0
 15 16  1  0
 16 17  2  0
 17 18  1  0
 18 19  2  0
 12 20  1  0
 20 21  1  0
 21 22  2  0
 21 23  1  0
 23 24  2  0
 24 25  1  0
 25 26  1  0
 26 27  2  0
 26 28  1  0
 28 29  1  0
 29 30  1  0
 29 31  1  0
 31 32  2  0
 32 33  1  0
 33 34  2  0
 34 35  1  0
 34 36  1  0
 36 37  2  0
 25 38  2  0
 38 39  1  0
 39 40  1  0
 40 41  1  0
 40 42  1  0
 42 43  1  0
 42 44  2  0
 42 45  2  0
 39 46  2  0
 19 14  1  0
 46 23  1  0
 37 31  1  0
  1 47  1  0
  1 48  1  0
  1 49  1  0
  2 50  1  0
  3 51  1  0
  3 52  1  0
  3 53  1  0
  4 54  1  0
  4 55  1  0
  5 56  1  0
  8 57  1  6
  9 58  1  0
  9 59  1  0
  9 60  1  0
 10 61  1  0
 10 62  1  0
 11 63  1  0
 11 64  1  0
 12 65  1  6
 13 66  1  0
 13 67  1  0
 15 68  1  0
 16 69  1  0
 17 70  1  0
 18 71  1  0
 19 72  1  0
 20 73  1  0
 24 74  1  0
 28 75  1  0
 29 76  1  1
 30 77  1  0
 30 78  1  0
 30 79  1  0
 32 80  1  0
 33 81  1  0
 36 82  1  0
 37 83  1  0
 38 84  1  0
 41 85  1  0
 41 86  1  0
 41 87  1  0
 43 88  1  0
 43 89  1  0
 43 90  1  0
 46 91  1  0
M  CHG  1  10   1
M  END
$$$$
