
     RDKit          3D

 45 44  0  0  0  0  0  0  0  0999 V2000
    1.4364   -2.1401    2.5454 C   0  0  0  0  0  0  0  0  0  0  0  0
    1.0743   -3.5850    2.8555 C   0  0  0  0  0  0  0  0  0  0  0  0
   -0.3947   -3.7712    3.2482 C   0  0  0  0  0  0  0  0  0  0  0  0
   -0.7384   -3.1253    4.5619 C   0  0  0  0  0  0  0  0  0  0  0  0
   -1.7225   -2.2476    4.8186 C   0  0  0  0  0  0  0  0  0  0  0  0
   -2.7400   -1.6907    3.8582 C   0  0  0  0  0  0  0  0  0  0  0  0
   -2.7111   -0.1585    3.7650 C   0  0  0  0  0  0  0  0  0  0  0  0
   -1.4612    0.3684    3.1145 C   0  0  0  0  0  0  0  0  0  0  0  0
   -1.4404    1.0097    1.9365 C   0  0  0  0  0  0  0  0  0  0  0  0
   -0.2181    1.4976    1.3392 C   0  0  0  0  0  0  0  0  0  0  0  0
   -0.1847    2.1327    0.1586 C   0  0  0  0  0  0  0  0  0  0  0  0
    1.1126    2.5992   -0.3933 C   0  0  0  0  0  0  0  0  0  0  0  0
    2.1769    2.4364    0.1878 O   0  0  0  0  0  0  0  0  0  0  0  0
    0.9784    3.2187   -1.6121 N   0  0  0  0  0  0  0  0  0  0  0  0
    2.1160    3.7502   -2.3371 C   0  0  0  0  0  0  0  0  0  0  0  0
    2.6068    2.8335   -3.4699 C   0  0  0  0  0  0  0  0  0  0  0  0
    1.5230    2.5964   -4.5228 C   0  0  0  0  0  0  0  0  0  0  0  0
    3.1460    1.5017   -2.9478 C   0  0  0  0  0  0  0  0  0  0  0  0
    1.3404   -1.5048    3.4307 H   0  0  0  0  0  0  0  0  0  0  0  0
    0.7952   -1.7365    1.7556 H   0  0  0  0  0  0  0  0  0  0  0  0
    2.4742   -2.0779    2.2025 H   0  0  0  0  0  0  0  0  0  0  0  0
    1.2771   -4.1942    1.9664 H   0  0  0  0  0  0  0  0  0  0  0  0
    1.7294   -3.9605    3.6510 H   0  0  0  0  0  0  0  0  0  0  0  0
   -1.0297   -3.4140    2.4326 H   0  0  0  0  0  0  0  0  0  0  0  0
   -0.5914   -4.8460    3.3459 H   0  0  0  0  0  0  0  0  0  0  0  0
   -0.1097   -3.4284    5.3995 H   0  0  0  0  0  0  0  0  0  0  0  0
   -1.8225   -1.8970    5.8460 H   0  0  0  0  0  0  0  0  0  0  0  0
   -3.7305   -1.9933    4.2210 H   0  0  0  0  0  0  0  0  0  0  0  0
   -2.6407   -2.1190    2.8563 H   0  0  0  0  0  0  0  0  0  0  0  0
   -2.7978    0.2829    4.7656 H   0  0  0  0  0  0  0  0  0  0  0  0
   -3.5952    0.1707    3.2047 H   0  0  0  0  0  0  0  0  0  0  0  0
   -0.5346    0.2066    3.6625 H   0  0  0  0  0  0  0  0  0  0  0  0
   -2.3691    1.1714    1.3938 H   0  0  0  0  0  0  0  0  0  0  0  0
    0.7090    1.3283    1.8868 H   0  0  0  0  0  0  0  0  0  0  0  0
   -1.0838    2.3164   -0.4138 H   0  0  0  0  0  0  0  0  0  0  0  0
    0.0639    3.3204   -2.0286 H   0  0  0  0  0  0  0  0  0  0  0  0
    2.9356    3.9529   -1.6384 H   0  0  0  0  0  0  0  0  0  0  0  0
    1.7976    4.7131   -2.7525 H   0  0  0  0  0  0  0  0  0  0  0  0
    3.4382    3.3524   -3.9647 H   0  0  0  0  0  0  0  0  0  0  0  0
    1.9255    2.0281   -5.3683 H   0  0  0  0  0  0  0  0  0  0  0  0
    0.6778    2.0325   -4.1145 H   0  0  0  0  0  0  0  0  0  0  0  0
    1.1432    3.5472   -4.9110 H   0  0  0  0  0  0  0  0  0  0  0  0
    3.5901    0.9209   -3.7635 H   0  0  0  0  0  0  0  0  0  0  0  0
    3.9235    1.6648   -2.1942 H   0  0  0  0  0  0  0  0  0  0  0  0
    2.3557    0.8914   -2.4988 H   0  0  0  0  0  0  0  0  0  0  0  0
  1  2  1  0
  2  3  1  0
  3  4  1  0
  4  5  2  0
  5  6  1  0
  6  7  1  0
  7  8  1  0
  8  9  2  0
  9 10  1  0
 10 11  2  0
 11 12  1  0
 12 13  2  0
 12 14  1  0
 14 15  1  0
 15 16  1  0
 16 17  1  0
 16 18  1  0
  1 19  1  0
  1 20  1  0
  1 21  1  0
  2 22  1  0
  2 23  1  0
  3 24  1  0
  3 25  1  0
  4 26  1  0
  5 27  1  0
  6 28  1  0
  6 29  1  0
  7 30  1  0
  7 31  1  0
  8 32  1  0
  9 33  1  0
 10 34  1  0
 11 35  1  0
 14 36  1  0
 15 37  1  0
 15 38  1  0
 16 39  1  0
 17 40  1  0
 17 41  1  0
 17 42  1  0
 18 43  1  0
 18 44  1  0
 18 45  1  0
M  END
$$$$
