@<TRIPOS>MOLECULE
MOL
   45    44     1     0     0
SMALL
bcc


@<TRIPOS>ATOM
      1 C1           1.4360    -2.1400     2.5450 c3         1 MOL      -0.093100
      2 C2           1.0740    -3.5850     2.8560 c3         1 MOL      -0.077400
      3 C3          -0.3950    -3.7710     3.2480 c3         1 MOL      -0.050200
      4 C4          -0.7380    -3.1250     4.5620 c2         1 MOL      -0.165200
      5 C5          -1.7220    -2.2480     4.8190 c2         1 MOL      -0.184200
      6 C6          -2.7400    -1.6910     3.8580 c3         1 MOL      -0.046200
      7 C7          -2.7110    -0.1590     3.7650 c3         1 MOL      -0.055200
      8 C8          -1.4610     0.3680     3.1150 c2         1 MOL      -0.121200
      9 C9          -1.4400     1.0100     1.9370 ce         1 MOL      -0.173000
     10 C10         -0.2180     1.4980     1.3390 ce         1 MOL      -0.043000
     11 C11         -0.1850     2.1330     0.1590 cf         1 MOL      -0.246200
     12 C12          1.1130     2.5990    -0.3930 c          1 MOL       0.657300
     13 O1           2.1770     2.4360     0.1880 o          1 MOL      -0.619100
     14 N1           0.9780     3.2190    -1.6120 ns         1 MOL      -0.561900
     15 C13          2.1160     3.7500    -2.3370 c3         1 MOL       0.088000
     16 C14          2.6070     2.8330    -3.4700 c3         1 MOL      -0.092700
     17 C15          1.5230     2.5960    -4.5230 c3         1 MOL      -0.091600
     18 C16          3.1460     1.5020    -2.9480 c3         1 MOL      -0.091600
     19 H1           1.3400    -1.5050     3.4310 hc         1 MOL       0.034033
     20 H2           0.7950    -1.7360     1.7560 hc         1 MOL       0.034033
     21 H3           2.4740    -2.0780     2.2030 hc         1 MOL       0.034033
     22 H4           1.2770    -4.1940     1.9660 hc         1 MOL       0.039700
     23 H5           1.7290    -3.9610     3.6510 hc         1 MOL       0.039700
     24 H6          -1.0300    -3.4140     2.4330 hc         1 MOL       0.047700
     25 H7          -0.5910    -4.8460     3.3460 hc         1 MOL       0.047700
     26 H8          -0.1100    -3.4280     5.3990 ha         1 MOL       0.125000
     27 H9          -1.8230    -1.8970     5.8460 ha         1 MOL       0.123000
     28 H10         -3.7310    -1.9930     4.2210 hc         1 MOL       0.051700
     29 H11         -2.6410    -2.1190     2.8560 hc         1 MOL       0.051700
     30 H12         -2.7980     0.2830     4.7660 hc         1 MOL       0.053200
     31 H13         -3.5950     0.1710     3.2050 hc         1 MOL       0.053200
     32 H14         -0.5350     0.2070     3.6630 ha         1 MOL       0.132000
     33 H15         -2.3690     1.1710     1.3940 ha         1 MOL       0.125000
     34 H16          0.7090     1.3280     1.8870 ha         1 MOL       0.151000
     35 H17         -1.0840     2.3160    -0.4140 ha         1 MOL       0.129000
     36 H18          0.0640     3.3200    -2.0290 hn         1 MOL       0.303500
     37 H19          2.9360     3.9530    -1.6380 h1         1 MOL       0.061200
     38 H20          1.7980     4.7130    -2.7520 h1         1 MOL       0.061200
     39 H21          3.4380     3.3520    -3.9650 hc         1 MOL       0.054700
     40 H22          1.9250     2.0280    -5.3680 hc         1 MOL       0.035533
     41 H23          0.6780     2.0330    -4.1140 hc         1 MOL       0.035533
     42 H24          1.1430     3.5470    -4.9110 hc         1 MOL       0.035533
     43 H25          3.5900     0.9210    -3.7640 hc         1 MOL       0.035533
     44 H26          3.9240     1.6650    -2.1940 hc         1 MOL       0.035533
     45 H27          2.3560     0.8910    -2.4990 hc         1 MOL       0.035533
@<TRIPOS>BOND
     1     1     2 1   
     2     2     3 1   
     3     3     4 1   
     4     4     5 2   
     5     5     6 1   
     6     6     7 1   
     7     7     8 1   
     8     8     9 2   
     9     9    10 1   
    10    10    11 2   
    11    11    12 1   
    12    12    13 2   
    13    12    14 1   
    14    14    15 1   
    15    15    16 1   
    16    16    17 1   
    17    16    18 1   
    18     1    19 1   
    19     1    20 1   
    20     1    21 1   
    21     2    22 1   
    22     2    23 1   
    23     3    24 1   
    24     3    25 1   
    25     4    26 1   
    26     5    27 1   
    27     6    28 1   
    28     6    29 1   
    29     7    30 1   
    30     7    31 1   
    31     8    32 1   
    32     9    33 1   
    33    10    34 1   
    34    11    35 1   
    35    14    36 1   
    36    15    37 1   
    37    15    38 1   
    38    16    39 1   
    39    17    40 1   
    40    17    41 1   
    41    17    42 1   
    42    18    43 1   
    43    18    44 1   
    44    18    45 1   
@<TRIPOS>SUBSTRUCTURE
     1 MOL         1 TEMP              0 ****  ****    0 ROOT
