@<TRIPOS>MOLECULE
MOL
   83    85     1     0     0
SMALL
bcc


@<TRIPOS>ATOM
      1 C1          -6.0830    -5.9910     1.0590 c3         1 MOL      -0.091100
      2 C2          -5.8520    -4.8140     0.1230 c3         1 MOL      -0.085400
      3 C3          -4.7010    -5.0910    -0.8480 c3         1 MOL      -0.075400
      4 C4          -4.4910    -3.9690    -1.8680 c3         1 MOL      -0.033200
      5 C5          -3.9660    -2.7180    -1.2540 cc         1 MOL       0.134900
      6 O1          -4.9060    -1.7980    -0.8990 os         1 MOL      -0.192200
      7 C6          -4.2520    -0.7440    -0.3520 ca         1 MOL       0.021100
      8 C7          -4.8640     0.4100     0.1330 ca         1 MOL      -0.081000
      9 C8          -4.0220     1.3910     0.6630 ca         1 MOL      -0.161000
     10 C9          -2.6420     1.1880     0.7280 ca         1 MOL       0.169600
     11 N1          -1.7990     2.2300     1.2290 nu         1 MOL      -0.779500
     12 S1          -1.0900     3.2270     0.0410 s6         1 MOL       1.471900
     13 C10          0.5060     3.4850     0.7710 c3         1 MOL      -0.387300
     14 O2          -0.9050     2.4940    -1.1930 o          1 MOL      -0.652800
     15 O3          -1.8190     4.4760     0.0870 o          1 MOL      -0.652800
     16 C11         -2.0560     0.0140     0.2350 ca         1 MOL      -0.152000
     17 C12         -2.8810    -0.9740    -0.3420 ca         1 MOL      -0.032800
     18 C13         -2.6890    -2.2460    -0.9780 cd         1 MOL      -0.231400
     19 C14         -1.4680    -2.9810    -1.2800 c          1 MOL       0.620900
     20 O4          -1.4310    -4.2090    -1.2650 o          1 MOL      -0.556100
     21 C15         -0.2230    -2.2470    -1.6320 ca         1 MOL      -0.211600
     22 C16         -0.2400    -1.0430    -2.3460 ca         1 MOL      -0.052000
     23 C17          0.9570    -0.3810    -2.6470 ca         1 MOL      -0.191500
     24 C18          2.1790    -0.9300    -2.2620 ca         1 MOL       0.153100
     25 O5           3.4120    -0.3880    -2.4900 os         1 MOL      -0.330900
     26 C19          3.5020     1.0140    -2.7470 c3         1 MOL       0.128400
     27 C20          3.2670     1.8630    -1.4940 c3         1 MOL      -0.125400
     28 C21          4.1700     1.4290    -0.3310 c3         1 MOL       0.175800
     29 N2           3.9120     2.2420     0.8800 n3         1 MOL      -0.751600
     30 C22          4.2250     1.4610     2.0960 c3         1 MOL       0.172300
     31 C23          2.9620     0.8790     2.7520 c3         1 MOL      -0.084900
     32 C24          2.2370    -0.1820     1.9230 c3         1 MOL      -0.080400
     33 C25          1.0530    -0.7660     2.6790 c3         1 MOL      -0.093600
     34 C26          4.6970     3.4920     0.8290 c3         1 MOL       0.172300
     35 C27          4.1440     4.5570     1.7880 c3         1 MOL      -0.084900
     36 C28          4.9450     5.8560     1.6880 c3         1 MOL      -0.080400
     37 C29          4.3980     6.9210     2.6260 c3         1 MOL      -0.093600
     38 C30          2.1970    -2.1580    -1.5960 ca         1 MOL      -0.191500
     39 C31          1.0060    -2.8140    -1.2780 ca         1 MOL      -0.052000
     40 H1          -6.9070    -5.7730     1.7450 hc         1 MOL       0.033700
     41 H2          -6.3390    -6.8950     0.4970 hc         1 MOL       0.033700
     42 H3          -5.1890    -6.1980     1.6560 hc         1 MOL       0.033700
     43 H4          -6.7720    -4.6150    -0.4370 hc         1 MOL       0.042200
     44 H5          -5.6370    -3.9240     0.7250 hc         1 MOL       0.042200
     45 H6          -4.9170    -6.0160    -1.3970 hc         1 MOL       0.059700
     46 H7          -3.7790    -5.2680    -0.2810 hc         1 MOL       0.059700
     47 H8          -5.4330    -3.7590    -2.3900 hc         1 MOL       0.075200
     48 H9          -3.7890    -4.3120    -2.6370 hc         1 MOL       0.075200
     49 H10         -5.9380     0.5390     0.0820 ha         1 MOL       0.156000
     50 H11         -4.4610     2.3190     1.0200 ha         1 MOL       0.140000
     51 H12         -2.2820     2.8390     1.8940 hn         1 MOL       0.455800
     52 H13          1.0860     4.1190     0.0980 h1         1 MOL       0.129033
     53 H14          0.3830     3.9780     1.7370 h1         1 MOL       0.129033
     54 H15          0.9940     2.5180     0.8860 h1         1 MOL       0.129033
     55 H16         -0.9790    -0.1130     0.2850 ha         1 MOL       0.156000
     56 H17         -1.1740    -0.5950    -2.6780 ha         1 MOL       0.149500
     57 H18          0.8920     0.5580    -3.1870 ha         1 MOL       0.155000
     58 H19          4.5250     1.1930    -3.0990 h1         1 MOL       0.058200
     59 H20          2.8510     1.3180    -3.5740 h1         1 MOL       0.058200
     60 H21          3.4320     2.9150    -1.7510 hc         1 MOL       0.072700
     61 H22          2.2210     1.7720    -1.1810 hc         1 MOL       0.072700
     62 H23          5.2290     1.4780    -0.6190 h1         1 MOL       0.034200
     63 H24          3.9630     0.3740    -0.1260 h1         1 MOL       0.034200
     64 H25          4.9550     0.6650     1.8930 h1         1 MOL       0.031950
     65 H26          4.7020     2.0910     2.8560 h1         1 MOL       0.031950
     66 H27          3.2570     0.4360     3.7120 hc         1 MOL       0.048700
     67 H28          2.2690     1.6960     2.9910 hc         1 MOL       0.048700
     68 H29          2.9310    -0.9910     1.6660 hc         1 MOL       0.039700
     69 H30          1.8690     0.2470     0.9860 hc         1 MOL       0.039700
     70 H31          1.3770    -1.2390     3.6120 hc         1 MOL       0.032867
     71 H32          0.5520    -1.5250     2.0700 hc         1 MOL       0.032867
     72 H33          0.3230     0.0120     2.9220 hc         1 MOL       0.032867
     73 H34          4.6570     3.9200    -0.1800 h1         1 MOL       0.031950
     74 H35          5.7570     3.2950     1.0410 h1         1 MOL       0.031950
     75 H36          3.0950     4.7610     1.5420 hc         1 MOL       0.048700
     76 H37          4.1660     4.2030     2.8240 hc         1 MOL       0.048700
     77 H38          5.9960     5.6650     1.9360 hc         1 MOL       0.039700
     78 H39          4.9170     6.2350     0.6600 hc         1 MOL       0.039700
     79 H40          4.9850     7.8410     2.5380 hc         1 MOL       0.032867
     80 H41          3.3570     7.1580     2.3850 hc         1 MOL       0.032867
     81 H42          4.4430     6.5880     3.6670 hc         1 MOL       0.032867
     82 H43          3.1480    -2.6030    -1.3120 ha         1 MOL       0.155000
     83 H44          1.0420    -3.7670    -0.7530 ha         1 MOL       0.149500
@<TRIPOS>BOND
     1     1     2 1   
     2     2     3 1   
     3     3     4 1   
     4     4     5 1   
     5     5     6 1   
     6     6     7 1   
     7     7     8 ar  
     8     8     9 ar  
     9     9    10 ar  
    10    10    11 1   
    11    11    12 1   
    12    12    13 1   
    13    12    14 2   
    14    12    15 2   
    15    10    16 ar  
    16    16    17 ar  
    17    17    18 1   
    18    18    19 1   
    19    19    20 2   
    20    19    21 1   
    21    21    22 ar  
    22    22    23 ar  
    23    23    24 ar  
    24    24    25 1   
    25    25    26 1   
    26    26    27 1   
    27    27    28 1   
    28    28    29 1   
    29    29    30 1   
    30    30    31 1   
    31    31    32 1   
    32    32    33 1   
    33    29    34 1   
    34    34    35 1   
    35    35    36 1   
    36    36    37 1   
    37    24    38 ar  
    38    38    39 ar  
    39    18     5 2   
    40    39    21 ar  
    41    17     7 ar  
    42     1    40 1   
    43     1    41 1   
    44     1    42 1   
    45     2    43 1   
    46     2    44 1   
    47     3    45 1   
    48     3    46 1   
    49     4    47 1   
    50     4    48 1   
    51     8    49 1   
    52     9    50 1   
    53    11    51 1   
    54    13    52 1   
    55    13    53 1   
    56    13    54 1   
    57    16    55 1   
    58    22    56 1   
    59    23    57 1   
    60    26    58 1   
    61    26    59 1   
    62    27    60 1   
    63    27    61 1   
    64    28    62 1   
    65    28    63 1   
    66    30    64 1   
    67    30    65 1   
    68    31    66 1   
    69    31    67 1   
    70    32    68 1   
    71    32    69 1   
    72    33    70 1   
    73    33    71 1   
    74    33    72 1   
    75    34    73 1   
    76    34    74 1   
    77    35    75 1   
    78    35    76 1   
    79    36    77 1   
    80    36    78 1   
    81    37    79 1   
    82    37    80 1   
    83    37    81 1   
    84    38    82 1   
    85    39    83 1   
@<TRIPOS>SUBSTRUCTURE
     1 MOL         1 TEMP              0 ****  ****    0 ROOT
