
     RDKit          3D

 83 85  0  0  0  0  0  0  0  0999 V2000
   -6.0826   -5.9908    1.0587 C   0  0  0  0  0  0  0  0  0  0  0  0
   -5.8517   -4.8139    0.1232 C   0  0  0  0  0  0  0  0  0  0  0  0
   -4.7008   -5.0907   -0.8480 C   0  0  0  0  0  0  0  0  0  0  0  0
   -4.4914   -3.9689   -1.8684 C   0  0  0  0  0  0  0  0  0  0  0  0
   -3.9660   -2.7182   -1.2535 C   0  0  0  0  0  0  0  0  0  0  0  0
   -4.9056   -1.7985   -0.8993 O   0  0  0  0  0  0  0  0  0  0  0  0
   -4.2515   -0.7443   -0.3517 C   0  0  0  0  0  0  0  0  0  0  0  0
   -4.8638    0.4097    0.1331 C   0  0  0  0  0  0  0  0  0  0  0  0
   -4.0216    1.3913    0.6635 C   0  0  0  0  0  0  0  0  0  0  0  0
   -2.6417    1.1880    0.7277 C   0  0  0  0  0  0  0  0  0  0  0  0
   -1.7987    2.2302    1.2290 N   0  0  0  0  0  0  0  0  0  0  0  0
   -1.0904    3.2267    0.0408 S   0  0  0  0  0  0  0  0  0  0  0  0
    0.5060    3.4846    0.7712 C   0  0  0  0  0  0  0  0  0  0  0  0
   -0.9050    2.4935   -1.1927 O   0  0  0  0  0  0  0  0  0  0  0  0
   -1.8189    4.4762    0.0868 O   0  0  0  0  0  0  0  0  0  0  0  0
   -2.0556    0.0137    0.2355 C   0  0  0  0  0  0  0  0  0  0  0  0
   -2.8805   -0.9735   -0.3424 C   0  0  0  0  0  0  0  0  0  0  0  0
   -2.6894   -2.2460   -0.9781 C   0  0  0  0  0  0  0  0  0  0  0  0
   -1.4684   -2.9807   -1.2802 C   0  0  0  0  0  0  0  0  0  0  0  0
   -1.4311   -4.2093   -1.2654 O   0  0  0  0  0  0  0  0  0  0  0  0
   -0.2225   -2.2471   -1.6321 C   0  0  0  0  0  0  0  0  0  0  0  0
   -0.2398   -1.0428   -2.3460 C   0  0  0  0  0  0  0  0  0  0  0  0
    0.9572   -0.3810   -2.6472 C   0  0  0  0  0  0  0  0  0  0  0  0
    2.1788   -0.9302   -2.2617 C   0  0  0  0  0  0  0  0  0  0  0  0
    3.4116   -0.3881   -2.4899 O   0  0  0  0  0  0  0  0  0  0  0  0
    3.5018    1.0144   -2.7466 C   0  0  0  0  0  0  0  0  0  0  0  0
    3.2674    1.8630   -1.4938 C   0  0  0  0  0  0  0  0  0  0  0  0
    4.1702    1.4293   -0.3309 C   0  0  0  0  0  0  0  0  0  0  0  0
    3.9116    2.2420    0.8803 N   0  0  0  0  0  0  0  0  0  0  0  0
    4.2253    1.4608    2.0958 C   0  0  0  0  0  0  0  0  0  0  0  0
    2.9623    0.8791    2.7515 C   0  0  0  0  0  0  0  0  0  0  0  0
    2.2371   -0.1824    1.9228 C   0  0  0  0  0  0  0  0  0  0  0  0
    1.0532   -0.7658    2.6790 C   0  0  0  0  0  0  0  0  0  0  0  0
    4.6974    3.4922    0.8293 C   0  0  0  0  0  0  0  0  0  0  0  0
    4.1435    4.5572    1.7875 C   0  0  0  0  0  0  0  0  0  0  0  0
    4.9454    5.8564    1.6884 C   0  0  0  0  0  0  0  0  0  0  0  0
    4.3983    6.9213    2.6256 C   0  0  0  0  0  0  0  0  0  0  0  0
    2.1973   -2.1582   -1.5956 C   0  0  0  0  0  0  0  0  0  0  0  0
    1.0062   -2.8143   -1.2775 C   0  0  0  0  0  0  0  0  0  0  0  0
   -6.9068   -5.7731    1.7452 H   0  0  0  0  0  0  0  0  0  0  0  0
   -6.3386   -6.8947    0.4968 H   0  0  0  0  0  0  0  0  0  0  0  0
   -5.1888   -6.1982    1.6557 H   0  0  0  0  0  0  0  0  0  0  0  0
   -6.7725   -4.6146   -0.4370 H   0  0  0  0  0  0  0  0  0  0  0  0
   -5.6368   -3.9242    0.7252 H   0  0  0  0  0  0  0  0  0  0  0  0
   -4.9170   -6.0157   -1.3973 H   0  0  0  0  0  0  0  0  0  0  0  0
   -3.7787   -5.2675   -0.2812 H   0  0  0  0  0  0  0  0  0  0  0  0
   -5.4334   -3.7594   -2.3899 H   0  0  0  0  0  0  0  0  0  0  0  0
   -3.7886   -4.3124   -2.6369 H   0  0  0  0  0  0  0  0  0  0  0  0
   -5.9384    0.5388    0.0823 H   0  0  0  0  0  0  0  0  0  0  0  0
   -4.4614    2.3193    1.0205 H   0  0  0  0  0  0  0  0  0  0  0  0
   -2.2821    2.8387    1.8939 H   0  0  0  0  0  0  0  0  0  0  0  0
    1.0862    4.1192    0.0982 H   0  0  0  0  0  0  0  0  0  0  0  0
    0.3827    3.9780    1.7368 H   0  0  0  0  0  0  0  0  0  0  0  0
    0.9936    2.5175    0.8856 H   0  0  0  0  0  0  0  0  0  0  0  0
   -0.9789   -0.1125    0.2850 H   0  0  0  0  0  0  0  0  0  0  0  0
   -1.1744   -0.5953   -2.6776 H   0  0  0  0  0  0  0  0  0  0  0  0
    0.8923    0.5582   -3.1873 H   0  0  0  0  0  0  0  0  0  0  0  0
    4.5250    1.1927   -3.0986 H   0  0  0  0  0  0  0  0  0  0  0  0
    2.8509    1.3179   -3.5736 H   0  0  0  0  0  0  0  0  0  0  0  0
    3.4324    2.9148   -1.7509 H   0  0  0  0  0  0  0  0  0  0  0  0
    2.2215    1.7717   -1.1805 H   0  0  0  0  0  0  0  0  0  0  0  0
    5.2285    1.4779   -0.6192 H   0  0  0  0  0  0  0  0  0  0  0  0
    3.9633    0.3736   -0.1258 H   0  0  0  0  0  0  0  0  0  0  0  0
    4.9547    0.6654    1.8935 H   0  0  0  0  0  0  0  0  0  0  0  0
    4.7025    2.0910    2.8561 H   0  0  0  0  0  0  0  0  0  0  0  0
    3.2568    0.4359    3.7116 H   0  0  0  0  0  0  0  0  0  0  0  0
    2.2688    1.6955    2.9907 H   0  0  0  0  0  0  0  0  0  0  0  0
    2.9307   -0.9910    1.6658 H   0  0  0  0  0  0  0  0  0  0  0  0
    1.8685    0.2470    0.9860 H   0  0  0  0  0  0  0  0  0  0  0  0
    1.3768   -1.2386    3.6117 H   0  0  0  0  0  0  0  0  0  0  0  0
    0.5518   -1.5246    2.0701 H   0  0  0  0  0  0  0  0  0  0  0  0
    0.3225    0.0121    2.9224 H   0  0  0  0  0  0  0  0  0  0  0  0
    4.6567    3.9197   -0.1798 H   0  0  0  0  0  0  0  0  0  0  0  0
    5.7568    3.2952    1.0406 H   0  0  0  0  0  0  0  0  0  0  0  0
    3.0945    4.7605    1.5423 H   0  0  0  0  0  0  0  0  0  0  0  0
    4.1661    4.2032    2.8240 H   0  0  0  0  0  0  0  0  0  0  0  0
    5.9960    5.6646    1.9357 H   0  0  0  0  0  0  0  0  0  0  0  0
    4.9172    6.2349    0.6600 H   0  0  0  0  0  0  0  0  0  0  0  0
    4.9852    7.8410    2.5381 H   0  0  0  0  0  0  0  0  0  0  0  0
    3.3571    7.1583    2.3846 H   0  0  0  0  0  0  0  0  0  0  0  0
    4.4428    6.5877    3.6673 H   0  0  0  0  0  0  0  0  0  0  0  0
    3.1482   -2.6033   -1.3117 H   0  0  0  0  0  0  0  0  0  0  0  0
    1.0424   -3.7671   -0.7530 H   0  0  0  0  0  0  0  0  0  0  0  0
  1  2  1  0
  2  3  1  0
  3  4  1  0
  4  5  1  0
  5  6  1  0
  6  7  1  0
  7  8  2  0
  8  9  1  0
  9 10  2  0
 10 11  1  0
 11 12  1  0
 12 13  1  0
 12 14  2  0
 12 15  2  0
 10 16  1  0
 16 17  2  0
 17 18  1  0
 18 19  1  0
 19 20  2  0
 19 21  1  0
 21 22  2  0
 22 23  1  0
 23 24  2  0
 24 25  1  0
 25 26  1  0
 26 27  1  0
 27 28  1  0
 28 29  1  0
 29 30  1  0
 30 31  1  0
 31 32  1  0
 32 33  1  0
 29 34  1  0
 34 35  1  0
 35 36  1  0
 36 37  1  0
 24 38  1  0
 38 39  2  0
 18  5  2  0
 39 21  1  0
 17  7  1  0
  1 40  1  0
  1 41  1  0
  1 42  1  0
  2 43  1  0
  2 44  1  0
  3 45  1  0
  3 46  1  0
  4 47  1  0
  4 48  1  0
  8 49  1  0
  9 50  1  0
 11 51  1  0
 13 52  1  0
 13 53  1  0
 13 54  1  0
 16 55  1  0
 22 56  1  0
 23 57  1  0
 26 58  1  0
 26 59  1  0
 27 60  1  0
 27 61  1  0
 28 62  1  0
 28 63  1  0
 30 64  1  0
 30 65  1  0
 31 66  1  0
 31 67  1  0
 32 68  1  0
 32 69  1  0
 33 70  1  0
 33 71  1  0
 33 72  1  0
 34 73  1  0
 34 74  1  0
 35 75  1  0
 35 76  1  0
 36 77  1  0
 36 78  1  0
 37 79  1  0
 37 80  1  0
 37 81  1  0
 38 82  1  0
 39 83  1  0
M  END
$$$$
