@<TRIPOS>MOLECULE
MOL
   70    75     1     0     0
SMALL
bcc


@<TRIPOS>ATOM
      1 C1           2.8320    -1.2880    -1.6860 c3         1 MOL       0.018600
      2 N1           3.0820     0.1080    -1.4250 na         1 MOL      -0.193900
      3 C2           4.0690     0.5840    -0.6090 cc         1 MOL       0.395400
      4 N2           4.0650     1.8950    -0.5550 nd         1 MOL      -0.668000
      5 C3           3.0340     2.2810    -1.3690 cd         1 MOL       0.313200
      6 C4           2.4050     1.1900    -1.9380 cc         1 MOL      -0.265900
      7 C5           1.2580     1.1240    -2.8890 c3         1 MOL       0.294100
      8 N3          -0.0090     1.5740    -2.3140 nh         1 MOL      -0.665000
      9 C6          -0.7880     0.5840    -1.5580 c3         1 MOL       0.179800
     10 C7          -1.0760     1.1150    -0.1480 c3         1 MOL       0.230500
     11 N4          -1.6210     0.0480     0.7490 n3         1 MOL      -0.794500
     12 C8          -1.0330     0.0460     2.1100 c3         1 MOL       0.263100
     13 C9           0.3350    -0.6050     2.1300 ca         1 MOL      -0.094300
     14 C10          1.4560     0.1020     2.5770 ca         1 MOL      -0.131000
     15 C11          2.7060    -0.5110     2.6040 ca         1 MOL      -0.107000
     16 C12          2.8540    -1.8340     2.1770 ca         1 MOL      -0.153000
     17 C13          1.7470    -2.5590     1.7120 ca         1 MOL       0.021800
     18 N5           1.9010    -3.9000     1.2380 na         1 MOL      -0.004200
     19 C14          3.0780    -4.6270     1.1790 cc         1 MOL      -0.153300
     20 C15          2.8270    -5.8680     0.6350 cd         1 MOL      -0.191000
     21 C16          1.4520    -5.9240     0.3450 cd         1 MOL      -0.191000
     22 C17          0.9080    -4.7150     0.7230 cc         1 MOL      -0.153300
     23 C18          0.4890    -1.9370     1.7040 ca         1 MOL      -0.145000
     24 S1          -3.2190    -0.5000     0.6210 sy         1 MOL       1.425800
     25 O1          -3.3320    -1.7240     1.3880 o          1 MOL      -0.646800
     26 O2          -3.5690    -0.4890    -0.7860 o          1 MOL      -0.646800
     27 C19         -4.2490     0.7270     1.4320 ca         1 MOL       0.133200
     28 C20         -5.5290     0.9690     0.9540 ca         1 MOL      -0.140300
     29 C21         -6.2720     1.9590     1.5870 ca         1 MOL      -0.112000
     30 C22         -5.7110     2.6590     2.6540 ca         1 MOL      -0.187300
     31 C23         -4.4180     2.3480     3.0500 ca         1 MOL       0.380200
     32 N6          -3.6590     1.4010     2.4580 nb         1 MOL      -0.603000
     33 C24         -1.9430     2.3630    -0.2850 c3         1 MOL      -0.052100
     34 C25         -1.3480     3.3350    -1.2850 ca         1 MOL      -0.156300
     35 C26         -1.7750     4.6760    -1.2340 ca         1 MOL      -0.044000
     36 C27         -1.2580     5.6180    -2.1210 ca         1 MOL      -0.078000
     37 C28         -1.6920     6.9820    -2.0610 cg         1 MOL       0.244800
     38 N7          -2.0490     8.0860    -2.0070 n1         1 MOL      -0.379800
     39 C29         -0.3170     5.2180    -3.0660 ca         1 MOL      -0.045000
     40 C30          0.0980     3.8810    -3.1260 ca         1 MOL      -0.213000
     41 C31         -0.4050     2.9050    -2.2510 ca         1 MOL       0.223600
     42 H1           2.9490    -1.4660    -2.7580 h1         1 MOL       0.057367
     43 H2           1.8180    -1.5290    -1.3620 h1         1 MOL       0.057367
     44 H3           3.5500    -1.8990    -1.1340 h1         1 MOL       0.057367
     45 H4           4.7580    -0.0620    -0.0800 h5         1 MOL       0.061100
     46 H5           2.7920     3.3270    -1.5080 h4         1 MOL       0.045100
     47 H6           1.5140     1.6800    -3.7970 h1         1 MOL       0.069200
     48 H7           1.1290     0.0960    -3.2500 h1         1 MOL       0.069200
     49 H8          -0.2520    -0.3690    -1.4880 h1         1 MOL       0.069200
     50 H9          -1.7080     0.3770    -2.1140 h1         1 MOL       0.069200
     51 H10         -0.1110     1.4370     0.2710 h1         1 MOL       0.080700
     52 H11         -0.9690     1.0760     2.4820 h1         1 MOL       0.073700
     53 H12         -1.6570    -0.4990     2.8270 h1         1 MOL       0.073700
     54 H13          1.3680     1.1360     2.9040 ha         1 MOL       0.139000
     55 H14          3.5720     0.0480     2.9500 ha         1 MOL       0.143000
     56 H15          3.8520    -2.2570     2.2180 ha         1 MOL       0.141000
     57 H16          4.0150    -4.2230     1.5300 h4         1 MOL       0.171000
     58 H17          3.5610    -6.6470     0.4730 ha         1 MOL       0.154000
     59 H18          0.9070    -6.7540    -0.0860 ha         1 MOL       0.154000
     60 H19         -0.1210    -4.3910     0.6580 h4         1 MOL       0.171000
     61 H20         -0.4040    -2.4570     1.3670 ha         1 MOL       0.169000
     62 H21         -5.9360     0.4090     0.1180 ha         1 MOL       0.175000
     63 H22         -7.2820     2.1840     1.2540 ha         1 MOL       0.151000
     64 H23         -6.2730     3.4330     3.1670 ha         1 MOL       0.151000
     65 H24         -3.9480     2.8730     3.8780 h4         1 MOL       0.032100
     66 H25         -2.9520     2.1210    -0.6350 hc         1 MOL       0.063200
     67 H26         -2.0310     2.8510     0.6930 hc         1 MOL       0.063200
     68 H27         -2.5110     4.9790    -0.4910 ha         1 MOL       0.141000
     69 H28          0.0990     5.9350    -3.7710 ha         1 MOL       0.144000
     70 H29          0.8160     3.6240    -3.8990 ha         1 MOL       0.142000
@<TRIPOS>BOND
     1     1     2 1   
     2     2     3 1   
     3     3     4 2   
     4     4     5 1   
     5     5     6 2   
     6     6     7 1   
     7     7     8 1   
     8     8     9 1   
     9     9    10 1   
    10    10    11 1   
    11    11    12 1   
    12    12    13 1   
    13    13    14 ar  
    14    14    15 ar  
    15    15    16 ar  
    16    16    17 ar  
    17    17    18 1   
    18    18    19 1   
    19    19    20 2   
    20    20    21 1   
    21    21    22 2   
    22    17    23 ar  
    23    11    24 1   
    24    24    25 2   
    25    24    26 2   
    26    24    27 1   
    27    27    28 ar  
    28    28    29 ar  
    29    29    30 ar  
    30    30    31 ar  
    31    31    32 ar  
    32    10    33 1   
    33    33    34 1   
    34    34    35 ar  
    35    35    36 ar  
    36    36    37 1   
    37    37    38 3   
    38    36    39 ar  
    39    39    40 ar  
    40    40    41 ar  
    41     6     2 1   
    42    41     8 1   
    43    23    13 ar  
    44    32    27 ar  
    45    41    34 ar  
    46    22    18 1   
    47     1    42 1   
    48     1    43 1   
    49     1    44 1   
    50     3    45 1   
    51     5    46 1   
    52     7    47 1   
    53     7    48 1   
    54     9    49 1   
    55     9    50 1   
    56    10    51 1   
    57    12    52 1   
    58    12    53 1   
    59    14    54 1   
    60    15    55 1   
    61    16    56 1   
    62    19    57 1   
    63    20    58 1   
    64    21    59 1   
    65    22    60 1   
    66    23    61 1   
    67    28    62 1   
    68    29    63 1   
    69    30    64 1   
    70    31    65 1   
    71    33    66 1   
    72    33    67 1   
    73    35    68 1   
    74    39    69 1   
    75    40    70 1   
@<TRIPOS>SUBSTRUCTURE
     1 MOL         1 TEMP              0 ****  ****    0 ROOT
