
     RDKit          3D

 70 75  0  0  0  0  0  0  0  0999 V2000
    2.8320   -1.2879   -1.6860 C   0  0  0  0  0  0  0  0  0  0  0  0
    3.0818    0.1083   -1.4249 N   0  0  0  0  0  0  0  0  0  0  0  0
    4.0694    0.5840   -0.6088 C   0  0  0  0  0  0  0  0  0  0  0  0
    4.0647    1.8953   -0.5546 N   0  0  0  0  0  0  0  0  0  0  0  0
    3.0335    2.2810   -1.3692 C   0  0  0  0  0  0  0  0  0  0  0  0
    2.4054    1.1901   -1.9379 C   0  0  0  0  0  0  0  0  0  0  0  0
    1.2583    1.1240   -2.8888 C   0  0  0  0  0  0  0  0  0  0  0  0
   -0.0085    1.5740   -2.3136 N   0  0  0  0  0  0  0  0  0  0  0  0
   -0.7878    0.5841   -1.5578 C   0  0  0  0  0  0  0  0  0  0  0  0
   -1.0758    1.1148   -0.1479 C   0  0  0  0  0  0  0  0  0  0  0  0
   -1.6214    0.0481    0.7494 N   0  0  0  0  0  0  0  0  0  0  0  0
   -1.0327    0.0456    2.1102 C   0  0  0  0  0  0  0  0  0  0  0  0
    0.3353   -0.6047    2.1298 C   0  0  0  0  0  0  0  0  0  0  0  0
    1.4558    0.1018    2.5772 C   0  0  0  0  0  0  0  0  0  0  0  0
    2.7056   -0.5115    2.6036 C   0  0  0  0  0  0  0  0  0  0  0  0
    2.8536   -1.8338    2.1766 C   0  0  0  0  0  0  0  0  0  0  0  0
    1.7473   -2.5595    1.7123 C   0  0  0  0  0  0  0  0  0  0  0  0
    1.9007   -3.9003    1.2376 N   0  0  0  0  0  0  0  0  0  0  0  0
    3.0782   -4.6270    1.1787 C   0  0  0  0  0  0  0  0  0  0  0  0
    2.8273   -5.8678    0.6346 C   0  0  0  0  0  0  0  0  0  0  0  0
    1.4521   -5.9237    0.3455 C   0  0  0  0  0  0  0  0  0  0  0  0
    0.9076   -4.7154    0.7225 C   0  0  0  0  0  0  0  0  0  0  0  0
    0.4891   -1.9370    1.7036 C   0  0  0  0  0  0  0  0  0  0  0  0
   -3.2191   -0.4996    0.6211 S   0  0  0  0  0  0  0  0  0  0  0  0
   -3.3324   -1.7241    1.3883 O   0  0  0  0  0  0  0  0  0  0  0  0
   -3.5690   -0.4886   -0.7860 O   0  0  0  0  0  0  0  0  0  0  0  0
   -4.2494    0.7268    1.4323 C   0  0  0  0  0  0  0  0  0  0  0  0
   -5.5287    0.9690    0.9537 C   0  0  0  0  0  0  0  0  0  0  0  0
   -6.2716    1.9589    1.5871 C   0  0  0  0  0  0  0  0  0  0  0  0
   -5.7109    2.6591    2.6537 C   0  0  0  0  0  0  0  0  0  0  0  0
   -4.4175    2.3479    3.0496 C   0  0  0  0  0  0  0  0  0  0  0  0
   -3.6592    1.4011    2.4579 N   0  0  0  0  0  0  0  0  0  0  0  0
   -1.9433    2.3630   -0.2850 C   0  0  0  0  0  0  0  0  0  0  0  0
   -1.3478    3.3346   -1.2853 C   0  0  0  0  0  0  0  0  0  0  0  0
   -1.7747    4.6758   -1.2342 C   0  0  0  0  0  0  0  0  0  0  0  0
   -1.2575    5.6182   -2.1212 C   0  0  0  0  0  0  0  0  0  0  0  0
   -1.6918    6.9824   -2.0609 C   0  0  0  0  0  0  0  0  0  0  0  0
   -2.0486    8.0857   -2.0071 N   0  0  0  0  0  0  0  0  0  0  0  0
   -0.3168    5.2182   -3.0660 C   0  0  0  0  0  0  0  0  0  0  0  0
    0.0979    3.8809   -3.1264 C   0  0  0  0  0  0  0  0  0  0  0  0
   -0.4047    2.9050   -2.2512 C   0  0  0  0  0  0  0  0  0  0  0  0
    2.9488   -1.4663   -2.7578 H   0  0  0  0  0  0  0  0  0  0  0  0
    1.8176   -1.5286   -1.3624 H   0  0  0  0  0  0  0  0  0  0  0  0
    3.5500   -1.8995   -1.1336 H   0  0  0  0  0  0  0  0  0  0  0  0
    4.7575   -0.0623   -0.0801 H   0  0  0  0  0  0  0  0  0  0  0  0
    2.7917    3.3269   -1.5082 H   0  0  0  0  0  0  0  0  0  0  0  0
    1.5144    1.6799   -3.7969 H   0  0  0  0  0  0  0  0  0  0  0  0
    1.1285    0.0960   -3.2496 H   0  0  0  0  0  0  0  0  0  0  0  0
   -0.2516   -0.3691   -1.4876 H   0  0  0  0  0  0  0  0  0  0  0  0
   -1.7078    0.3766   -2.1144 H   0  0  0  0  0  0  0  0  0  0  0  0
   -0.1108    1.4366    0.2710 H   0  0  0  0  0  0  0  0  0  0  0  0
   -0.9694    1.0758    2.4820 H   0  0  0  0  0  0  0  0  0  0  0  0
   -1.6571   -0.4993    2.8270 H   0  0  0  0  0  0  0  0  0  0  0  0
    1.3680    1.1359    2.9038 H   0  0  0  0  0  0  0  0  0  0  0  0
    3.5724    0.0479    2.9496 H   0  0  0  0  0  0  0  0  0  0  0  0
    3.8515   -2.2575    2.2183 H   0  0  0  0  0  0  0  0  0  0  0  0
    4.0153   -4.2235    1.5304 H   0  0  0  0  0  0  0  0  0  0  0  0
    3.5612   -6.6470    0.4727 H   0  0  0  0  0  0  0  0  0  0  0  0
    0.9069   -6.7536   -0.0857 H   0  0  0  0  0  0  0  0  0  0  0  0
   -0.1206   -4.3912    0.6580 H   0  0  0  0  0  0  0  0  0  0  0  0
   -0.4043   -2.4571    1.3675 H   0  0  0  0  0  0  0  0  0  0  0  0
   -5.9356    0.4090    0.1180 H   0  0  0  0  0  0  0  0  0  0  0  0
   -7.2818    2.1843    1.2544 H   0  0  0  0  0  0  0  0  0  0  0  0
   -6.2729    3.4329    3.1670 H   0  0  0  0  0  0  0  0  0  0  0  0
   -3.9482    2.8725    3.8780 H   0  0  0  0  0  0  0  0  0  0  0  0
   -2.9517    2.1210   -0.6354 H   0  0  0  0  0  0  0  0  0  0  0  0
   -2.0306    2.8512    0.6925 H   0  0  0  0  0  0  0  0  0  0  0  0
   -2.5110    4.9789   -0.4911 H   0  0  0  0  0  0  0  0  0  0  0  0
    0.0994    5.9351   -3.7713 H   0  0  0  0  0  0  0  0  0  0  0  0
    0.8157    3.6239   -3.8991 H   0  0  0  0  0  0  0  0  0  0  0  0
  1  2  1  0
  2  3  1  0
  3  4  2  0
  4  5  1  0
  5  6  2  0
  6  7  1  0
  7  8  1  0
  8  9  1  0
  9 10  1  0
 10 11  1  0
 11 12  1  0
 12 13  1  0
 13 14  2  0
 14 15  1  0
 15 16  2  0
 16 17  1  0
 17 18  1  0
 18 19  1  0
 19 20  2  0
 20 21  1  0
 21 22  2  0
 17 23  2  0
 11 24  1  0
 24 25  2  0
 24 26  2  0
 24 27  1  0
 27 28  2  0
 28 29  1  0
 29 30  2  0
 30 31  1  0
 31 32  2  0
 10 33  1  0
 33 34  1  0
 34 35  2  0
 35 36  1  0
 36 37  1  0
 37 38  3  0
 36 39  2  0
 39 40  1  0
 40 41  2  0
  6  2  1  0
 41  8  1  0
 23 13  1  0
 32 27  1  0
 41 34  1  0
 22 18  1  0
  1 42  1  0
  1 43  1  0
  1 44  1  0
  3 45  1  0
  5 46  1  0
  7 47  1  0
  7 48  1  0
  9 49  1  0
  9 50  1  0
 10 51  1  0
 12 52  1  0
 12 53  1  0
 14 54  1  0
 15 55  1  0
 16 56  1  0
 19 57  1  0
 20 58  1  0
 21 59  1  0
 22 60  1  0
 23 61  1  0
 28 62  1  0
 29 63  1  0
 30 64  1  0
 31 65  1  0
 33 66  1  0
 33 67  1  0
 35 68  1  0
 39 69  1  0
 40 70  1  0
M  END
$$$$
