@<TRIPOS>MOLECULE
MOL
   29    28     1     0     0
SMALL
bcc


@<TRIPOS>ATOM
      1 C1          -2.5220     1.0780    -1.1750 c3         1 MOL      -0.107100
      2 C2          -1.1570     0.5310    -0.7890 c3         1 MOL       0.015700
      3 N1          -0.5660    -0.2230    -1.8970 ns         1 MOL      -0.485900
      4 C3           0.7790    -0.1800    -2.1570 c          1 MOL       0.640100
      5 O1           1.5350     0.6940    -1.7370 o          1 MOL      -0.567100
      6 C4           1.3350    -1.2970    -3.0560 c3         1 MOL       0.047500
      7 N2           2.7890    -1.0270    -3.3570 nz         1 MOL      -0.840600
      8 C5           1.1500    -2.6680    -2.4060 c3         1 MOL      -0.192400
      9 C6           2.0060    -2.7490    -1.1710 c          1 MOL       0.657100
     10 N3           1.3850    -3.0150    -0.0010 nt         1 MOL      -0.608000
     11 O2           3.2130    -2.5250    -1.2480 o          1 MOL      -0.677100
     12 C7          -1.2710    -0.4600     0.3890 c          1 MOL       0.643100
     13 N4          -1.5980     0.0730     1.5980 nt         1 MOL      -0.632000
     14 O3          -1.0860    -1.6720     0.2590 o          1 MOL      -0.686100
     15 H1          -2.9620     1.6580    -0.3570 hc         1 MOL       0.067033
     16 H2          -2.4460     1.7280    -2.0530 hc         1 MOL       0.067033
     17 H3          -3.2200     0.2690    -1.4190 hc         1 MOL       0.067033
     18 H4          -0.4880     1.3470    -0.4910 h1         1 MOL       0.117700
     19 H5          -1.1440    -0.9770    -2.2530 hn         1 MOL       0.315500
     20 H6           0.8160    -1.2470    -4.0190 hx         1 MOL       0.121700
     21 H7           3.1440    -1.4720    -4.2080 hn         1 MOL       0.480467
     22 H8           3.3760    -1.3570    -2.5610 hn         1 MOL       0.480467
     23 H9           2.9530    -0.0090    -3.3890 hn         1 MOL       0.480467
     24 H10          1.4750    -3.4620    -3.0890 hc         1 MOL       0.117200
     25 H11          0.1010    -2.8620    -2.1600 hc         1 MOL       0.117200
     26 H12          1.9360    -3.0860     0.8470 hn         1 MOL       0.347500
     27 H13          0.3710    -2.9970     0.1270 hn         1 MOL       0.347500
     28 H14         -1.7450     1.0620     1.7580 hn         1 MOL       0.332000
     29 H15         -1.6920    -0.5470     2.3940 hn         1 MOL       0.332000
@<TRIPOS>BOND
     1     1     2 1   
     2     2     3 1   
     3     3     4 1   
     4     4     5 2   
     5     4     6 1   
     6     6     7 1   
     7     6     8 1   
     8     8     9 1   
     9     9    10 1   
    10     9    11 2   
    11     2    12 1   
    12    12    13 1   
    13    12    14 2   
    14     1    15 1   
    15     1    16 1   
    16     1    17 1   
    17     2    18 1   
    18     3    19 1   
    19     6    20 1   
    20     7    21 1   
    21     7    22 1   
    22     7    23 1   
    23     8    24 1   
    24     8    25 1   
    25    10    26 1   
    26    10    27 1   
    27    13    28 1   
    28    13    29 1   
@<TRIPOS>SUBSTRUCTURE
     1 MOL         1 TEMP              0 ****  ****    0 ROOT
