
     RDKit          3D

 29 28  0  0  0  0  0  0  0  0999 V2000
   -2.5221    1.0778   -1.1750 C   0  0  0  0  0  0  0  0  0  0  0  0
   -1.1569    0.5315   -0.7889 C   0  0  0  0  0  0  0  0  0  0  0  0
   -0.5663   -0.2226   -1.8969 N   0  0  0  0  0  0  0  0  0  0  0  0
    0.7791   -0.1800   -2.1569 C   0  0  0  0  0  0  0  0  0  0  0  0
    1.5351    0.6943   -1.7372 O   0  0  0  0  0  0  0  0  0  0  0  0
    1.3352   -1.2972   -3.0562 C   0  0  0  0  0  0  0  0  0  0  0  0
    2.7893   -1.0270   -3.3573 N   0  0  0  0  0  0  0  0  0  0  0  0
    1.1496   -2.6685   -2.4063 C   0  0  0  0  0  0  0  0  0  0  0  0
    2.0057   -2.7493   -1.1707 C   0  0  0  0  0  0  0  0  0  0  0  0
    1.3846   -3.0155   -0.0014 N   0  0  0  0  0  0  0  0  0  0  0  0
    3.2126   -2.5249   -1.2481 O   0  0  0  0  0  0  0  0  0  0  0  0
   -1.2712   -0.4598    0.3888 C   0  0  0  0  0  0  0  0  0  0  0  0
   -1.5976    0.0730    1.5983 N   0  0  0  0  0  0  0  0  0  0  0  0
   -1.0857   -1.6717    0.2586 O   0  0  0  0  0  0  0  0  0  0  0  0
   -2.9621    1.6579   -0.3574 H   0  0  0  0  0  0  0  0  0  0  0  0
   -2.4459    1.7285   -2.0526 H   0  0  0  0  0  0  0  0  0  0  0  0
   -3.2197    0.2685   -1.4190 H   0  0  0  0  0  0  0  0  0  0  0  0
   -0.4885    1.3466   -0.4913 H   0  0  0  0  0  0  0  0  0  0  0  0
   -1.1442   -0.9765   -2.2527 H   0  0  0  0  0  0  0  0  0  0  0  0
    0.8164   -1.2472   -4.0195 H   0  0  0  0  0  0  0  0  0  0  0  0
    3.1444   -1.4715   -4.2082 H   0  0  0  0  0  0  0  0  0  0  0  0
    3.3762   -1.3574   -2.5607 H   0  0  0  0  0  0  0  0  0  0  0  0
    2.9532   -0.0087   -3.3890 H   0  0  0  0  0  0  0  0  0  0  0  0
    1.4752   -3.4620   -3.0890 H   0  0  0  0  0  0  0  0  0  0  0  0
    0.1009   -2.8621   -2.1599 H   0  0  0  0  0  0  0  0  0  0  0  0
    1.9362   -3.0855    0.8470 H   0  0  0  0  0  0  0  0  0  0  0  0
    0.3713   -2.9974    0.1272 H   0  0  0  0  0  0  0  0  0  0  0  0
   -1.7451    1.0618    1.7584 H   0  0  0  0  0  0  0  0  0  0  0  0
   -1.6920   -0.5475    2.3941 H   0  0  0  0  0  0  0  0  0  0  0  0
  1  2  1  0
  2  3  1  0
  3  4  1  0
  4  5  2  0
  4  6  1  0
  6  7  1  0
  6  8  1  0
  8  9  1  0
  9 10  1  0
  9 11  2  0
  2 12  1  0
 12 13  1  0
 12 14  2  0
  1 15  1  0
  1 16  1  0
  1 17  1  0
  2 18  1  0
  3 19  1  0
  6 20  1  0
  7 21  1  0
  7 22  1  0
  7 23  1  0
  8 24  1  0
  8 25  1  0
 10 26  1  0
 10 27  1  0
 13 28  1  0
 13 29  1  0
M  CHG  1   7   1
M  END
$$$$
