@<TRIPOS>MOLECULE
MOL
   34    34     1     0     0
SMALL
bcc


@<TRIPOS>ATOM
      1 C1          -1.8020     1.3210    -4.1170 c3         1 MOL      -0.006400
      2 N1          -1.8080     0.2270    -3.1420 nu         1 MOL      -0.374100
      3 C2          -0.8240    -0.1470    -2.2850 cz         1 MOL       0.515300
      4 N2           0.4310     0.3410    -2.2750 nu         1 MOL      -0.250200
      5 C3           1.0050     1.2180    -3.2520 c1         1 MOL       0.198500
      6 N3           1.4560     1.9250    -4.0480 n1         1 MOL      -0.257800
      7 N4          -1.1150    -1.0930    -1.3490 nu         1 MOL      -0.379200
      8 C4          -2.4500    -1.5800    -0.9420 c3         1 MOL       0.024300
      9 C5          -2.4960    -1.9820     0.5420 c3         1 MOL      -0.054300
     10 S1          -1.3700    -3.3720     0.9210 ss         1 MOL      -0.258200
     11 C6          -0.2010    -2.5670     2.0870 c3         1 MOL       0.043000
     12 C7           0.8090    -1.8350     1.2860 cc         1 MOL      -0.215900
     13 N5           1.8450    -2.4750     0.6420 na         1 MOL      -0.294900
     14 C8           2.4390    -1.5590    -0.1780 cc         1 MOL       0.422400
     15 N6           1.8500    -0.3840    -0.0860 nd         1 MOL      -0.694000
     16 C9           0.9700    -0.4980     0.9730 cd         1 MOL       0.253600
     17 C10          0.2470     0.6900     1.4870 c3         1 MOL      -0.128400
     18 H1          -2.8260     1.4530    -4.4780 h1         1 MOL       0.086700
     19 H2          -1.1730     1.0540    -4.9690 h1         1 MOL       0.086700
     20 H3          -1.4970     2.2520    -3.6350 h1         1 MOL       0.086700
     21 H4          -2.6650    -0.3080    -3.0970 hn         1 MOL       0.323700
     22 H5           1.0620     0.1030    -1.5060 hn         1 MOL       0.367700
     23 H6          -0.3250    -1.4690    -0.8370 hn         1 MOL       0.342700
     24 H7          -2.7130    -2.4250    -1.5870 h1         1 MOL       0.076200
     25 H8          -3.1760    -0.7740    -1.0910 h1         1 MOL       0.076200
     26 H9          -2.2600    -1.1190     1.1710 h1         1 MOL       0.106700
     27 H10         -3.5120    -2.3040     0.7930 h1         1 MOL       0.106700
     28 H11         -0.7420    -1.9150     2.7780 h1         1 MOL       0.110700
     29 H12          0.2810    -3.3520     2.6800 h1         1 MOL       0.110700
     30 H13          2.0790    -3.4590     0.7080 hn         1 MOL       0.323700
     31 H14          3.2720    -1.8130    -0.8230 h5         1 MOL       0.085100
     32 H15         -0.6470     0.8810     0.8870 hc         1 MOL       0.054700
     33 H16         -0.0550     0.5470     2.5290 hc         1 MOL       0.054700
     34 H17          0.8870     1.5760     1.4400 hc         1 MOL       0.054700
@<TRIPOS>BOND
     1     1     2 1   
     2     2     3 2   
     3     3     4 1   
     4     4     5 1   
     5     5     6 3   
     6     3     7 1   
     7     7     8 1   
     8     8     9 1   
     9     9    10 1   
    10    10    11 1   
    11    11    12 1   
    12    12    13 1   
    13    13    14 1   
    14    14    15 2   
    15    15    16 1   
    16    16    17 1   
    17    16    12 2   
    18     1    18 1   
    19     1    19 1   
    20     1    20 1   
    21     2    21 1   
    22     4    22 1   
    23     7    23 1   
    24     8    24 1   
    25     8    25 1   
    26     9    26 1   
    27     9    27 1   
    28    11    28 1   
    29    11    29 1   
    30    13    30 1   
    31    14    31 1   
    32    17    32 1   
    33    17    33 1   
    34    17    34 1   
@<TRIPOS>SUBSTRUCTURE
     1 MOL         1 TEMP              0 ****  ****    0 ROOT
