
     RDKit          3D

 34 34  0  0  0  0  0  0  0  0999 V2000
   -1.8017    1.3211   -4.1175 C   0  0  0  0  0  0  0  0  0  0  0  0
   -1.8080    0.2272   -3.1419 N   0  0  0  0  0  0  0  0  0  0  0  0
   -0.8236   -0.1470   -2.2855 C   0  0  0  0  0  0  0  0  0  0  0  0
    0.4308    0.3406   -2.2752 N   0  0  0  0  0  0  0  0  0  0  0  0
    1.0046    1.2181   -3.2518 C   0  0  0  0  0  0  0  0  0  0  0  0
    1.4555    1.9246   -4.0476 N   0  0  0  0  0  0  0  0  0  0  0  0
   -1.1152   -1.0926   -1.3488 N   0  0  0  0  0  0  0  0  0  0  0  0
   -2.4496   -1.5799   -0.9422 C   0  0  0  0  0  0  0  0  0  0  0  0
   -2.4963   -1.9819    0.5421 C   0  0  0  0  0  0  0  0  0  0  0  0
   -1.3699   -3.3720    0.9212 S   0  0  0  0  0  0  0  0  0  0  0  0
   -0.2014   -2.5675    2.0866 C   0  0  0  0  0  0  0  0  0  0  0  0
    0.8094   -1.8346    1.2856 C   0  0  0  0  0  0  0  0  0  0  0  0
    1.8445   -2.4749    0.6416 N   0  0  0  0  0  0  0  0  0  0  0  0
    2.4390   -1.5592   -0.1777 C   0  0  0  0  0  0  0  0  0  0  0  0
    1.8500   -0.3839   -0.0856 N   0  0  0  0  0  0  0  0  0  0  0  0
    0.9703   -0.4985    0.9732 C   0  0  0  0  0  0  0  0  0  0  0  0
    0.2471    0.6898    1.4869 C   0  0  0  0  0  0  0  0  0  0  0  0
   -2.8265    1.4532   -4.4777 H   0  0  0  0  0  0  0  0  0  0  0  0
   -1.1734    1.0541   -4.9694 H   0  0  0  0  0  0  0  0  0  0  0  0
   -1.4970    2.2524   -3.6352 H   0  0  0  0  0  0  0  0  0  0  0  0
   -2.6647   -0.3080   -3.0967 H   0  0  0  0  0  0  0  0  0  0  0  0
    1.0620    0.1029   -1.5063 H   0  0  0  0  0  0  0  0  0  0  0  0
   -0.3248   -1.4688   -0.8371 H   0  0  0  0  0  0  0  0  0  0  0  0
   -2.7129   -2.4247   -1.5868 H   0  0  0  0  0  0  0  0  0  0  0  0
   -3.1761   -0.7745   -1.0913 H   0  0  0  0  0  0  0  0  0  0  0  0
   -2.2602   -1.1191    1.1714 H   0  0  0  0  0  0  0  0  0  0  0  0
   -3.5121   -2.3040    0.7928 H   0  0  0  0  0  0  0  0  0  0  0  0
   -0.7422   -1.9154    2.7783 H   0  0  0  0  0  0  0  0  0  0  0  0
    0.2807   -3.3516    2.6797 H   0  0  0  0  0  0  0  0  0  0  0  0
    2.0794   -3.4593    0.7078 H   0  0  0  0  0  0  0  0  0  0  0  0
    3.2721   -1.8133   -0.8233 H   0  0  0  0  0  0  0  0  0  0  0  0
   -0.6475    0.8807    0.8873 H   0  0  0  0  0  0  0  0  0  0  0  0
   -0.0552    0.5468    2.5286 H   0  0  0  0  0  0  0  0  0  0  0  0
    0.8875    1.5761    1.4396 H   0  0  0  0  0  0  0  0  0  0  0  0
  1  2  1  0
  2  3  2  0
  3  4  1  0
  4  5  1  0
  5  6  3  0
  3  7  1  0
  7  8  1  0
  8  9  1  0
  9 10  1  0
 10 11  1  0
 11 12  1  0
 12 13  1  0
 13 14  1  0
 14 15  2  0
 15 16  1  0
 16 17  1  0
 16 12  2  0
  1 18  1  0
  1 19  1  0
  1 20  1  0
  2 21  1  0
  4 22  1  0
  7 23  1  0
  8 24  1  0
  8 25  1  0
  9 26  1  0
  9 27  1  0
 11 28  1  0
 11 29  1  0
 13 30  1  0
 14 31  1  0
 17 32  1  0
 17 33  1  0
 17 34  1  0
M  CHG  1   2   1
M  END
$$$$
