
     RDKit          3D

 70 75  0  0  0  0  0  0  0  0999 V2000
   -0.9863    0.2339   -5.0577 C   0  0  0  0  0  0  0  0  0  0  0  0
   -1.7257    1.2504   -4.4575 C   0  0  0  0  0  0  0  0  0  0  0  0
   -1.0897    2.1966   -3.6533 C   0  0  0  0  0  0  0  0  0  0  0  0
    0.2946    2.1236   -3.4262 C   0  0  0  0  0  0  0  0  0  0  0  0
    0.9950    3.1310   -2.5483 C   0  0  0  0  0  0  0  0  0  0  0  0
    0.3664    3.2566   -1.2443 N   0  0  0  0  0  0  0  0  0  0  0  0
   -0.0531    4.4612   -0.8228 N   0  0  0  0  0  0  0  0  0  0  0  0
   -0.5986    4.2587    0.3652 N   0  0  0  0  0  0  0  0  0  0  0  0
   -0.5301    2.9389    0.7152 N   0  0  0  0  0  0  0  0  0  0  0  0
    0.0890    2.3226   -0.2756 C   0  0  0  0  0  0  0  0  0  0  0  0
    0.3672    0.8500   -0.3380 C   0  0  0  0  0  0  0  0  0  0  0  0
    1.8465    0.4910   -0.4375 C   0  0  0  0  0  0  0  0  0  0  0  0
    2.2436   -0.5992   -1.2299 C   0  0  0  0  0  0  0  0  0  0  0  0
    3.5843   -0.9803   -1.3071 C   0  0  0  0  0  0  0  0  0  0  0  0
    4.5693   -0.2820   -0.5978 C   0  0  0  0  0  0  0  0  0  0  0  0
    6.0071   -0.7494   -0.6354 C   0  0  0  0  0  0  0  0  0  0  0  0
    6.2120   -1.8601    0.2748 N   0  0  0  0  0  0  0  0  0  0  0  0
    6.7152   -1.8174    1.5371 C   0  0  0  0  0  0  0  0  0  0  0  0
    6.7256   -3.0280    2.0441 N   0  0  0  0  0  0  0  0  0  0  0  0
    6.2340   -3.7947    1.0262 C   0  0  0  0  0  0  0  0  0  0  0  0
    5.8889   -3.1224   -0.0761 N   0  0  0  0  0  0  0  0  0  0  0  0
    4.1873    0.8162    0.1799 C   0  0  0  0  0  0  0  0  0  0  0  0
    2.8443    1.1991    0.2576 C   0  0  0  0  0  0  0  0  0  0  0  0
   -0.3733    0.1134    0.8055 N   0  0  0  0  0  0  0  0  0  0  0  0
    0.2462    0.2575    2.1745 C   0  0  0  0  0  0  0  0  0  0  0  0
   -0.8345    0.4824    3.2257 C   0  0  0  0  0  0  0  0  0  0  0  0
   -1.6508   -0.7535    3.5857 C   0  0  0  0  0  0  0  0  0  0  0  0
   -2.3341   -1.4418    2.4931 N   0  0  0  0  0  0  0  0  0  0  0  0
   -3.4433   -0.6944    1.8990 C   0  0  0  0  0  0  0  0  0  0  0  0
   -4.3772   -1.6431    1.0994 C   0  0  0  0  0  0  0  0  0  0  0  0
   -5.5573   -0.8732    1.7303 C   0  0  0  0  0  0  0  0  0  0  0  0
   -4.6126   -0.5719    2.9137 C   0  0  0  0  0  0  0  0  0  0  0  0
   -1.4417   -2.1064    1.5447 C   0  0  0  0  0  0  0  0  0  0  0  0
   -0.7710   -1.2899    0.4242 C   0  0  0  0  0  0  0  0  0  0  0  0
    1.0319    1.1139   -4.0633 C   0  0  0  0  0  0  0  0  0  0  0  0
    0.3920    0.1696   -4.8672 C   0  0  0  0  0  0  0  0  0  0  0  0
   -1.4809   -0.4895   -5.7032 H   0  0  0  0  0  0  0  0  0  0  0  0
   -2.7966    1.3204   -4.6400 H   0  0  0  0  0  0  0  0  0  0  0  0
   -1.6873    3.0013   -3.2237 H   0  0  0  0  0  0  0  0  0  0  0  0
    2.0391    2.8563   -2.3645 H   0  0  0  0  0  0  0  0  0  0  0  0
    0.9852    4.1115   -3.0380 H   0  0  0  0  0  0  0  0  0  0  0  0
   -0.1347    0.4911   -1.2444 H   0  0  0  0  0  0  0  0  0  0  0  0
    1.5187   -1.1777   -1.8018 H   0  0  0  0  0  0  0  0  0  0  0  0
    3.8602   -1.8486   -1.9081 H   0  0  0  0  0  0  0  0  0  0  0  0
    6.6932    0.0562   -0.3501 H   0  0  0  0  0  0  0  0  0  0  0  0
    6.2877   -1.0784   -1.6426 H   0  0  0  0  0  0  0  0  0  0  0  0
    7.0466   -0.9123    2.0266 H   0  0  0  0  0  0  0  0  0  0  0  0
    6.1215   -4.8697    1.0933 H   0  0  0  0  0  0  0  0  0  0  0  0
    4.9314    1.3787    0.7438 H   0  0  0  0  0  0  0  0  0  0  0  0
    2.6017    2.0608    0.8805 H   0  0  0  0  0  0  0  0  0  0  0  0
   -1.2515    0.6431    0.8678 H   0  0  0  0  0  0  0  0  0  0  0  0
    0.8713   -0.6197    2.3713 H   0  0  0  0  0  0  0  0  0  0  0  0
    0.8840    1.1442    2.1692 H   0  0  0  0  0  0  0  0  0  0  0  0
   -1.5031    1.2963    2.9192 H   0  0  0  0  0  0  0  0  0  0  0  0
   -0.3431    0.8307    4.1434 H   0  0  0  0  0  0  0  0  0  0  0  0
   -2.3783   -0.4706    4.3565 H   0  0  0  0  0  0  0  0  0  0  0  0
   -0.9910   -1.4721    4.0903 H   0  0  0  0  0  0  0  0  0  0  0  0
   -3.2030    0.2404    1.3832 H   0  0  0  0  0  0  0  0  0  0  0  0
   -4.3020   -1.5754    0.0107 H   0  0  0  0  0  0  0  0  0  0  0  0
   -4.3592   -2.7007    1.3913 H   0  0  0  0  0  0  0  0  0  0  0  0
   -6.4434   -1.4672    1.9662 H   0  0  0  0  0  0  0  0  0  0  0  0
   -5.8600    0.0162    1.1658 H   0  0  0  0  0  0  0  0  0  0  0  0
   -4.6532   -1.3390    3.6975 H   0  0  0  0  0  0  0  0  0  0  0  0
   -4.7394    0.4115    3.3748 H   0  0  0  0  0  0  0  0  0  0  0  0
   -0.6503   -2.6164    2.1114 H   0  0  0  0  0  0  0  0  0  0  0  0
   -1.9819   -2.9335    1.0664 H   0  0  0  0  0  0  0  0  0  0  0  0
   -1.4599   -1.1901   -0.4223 H   0  0  0  0  0  0  0  0  0  0  0  0
    0.1272   -1.8163    0.0905 H   0  0  0  0  0  0  0  0  0  0  0  0
    2.1145    1.0575   -3.9548 H   0  0  0  0  0  0  0  0  0  0  0  0
    0.9709   -0.6036   -5.3690 H   0  0  0  0  0  0  0  0  0  0  0  0
  1  2  2  0
  2  3  1  0
  3  4  2  0
  4  5  1  0
  5  6  1  0
  6  7  1  0
  7  8  2  0
  8  9  1  0
  9 10  2  0
 10 11  1  0
 11 12  1  0
 12 13  2  0
 13 14  1  0
 14 15  2  0
 15 16  1  0
 16 17  1  0
 17 18  1  0
 18 19  2  0
 19 20  1  0
 20 21  2  0
 15 22  1  0
 22 23  2  0
 11 24  1  0
 24 25  1  0
 25 26  1  0
 26 27  1  0
 27 28  1  0
 28 29  1  0
 29 30  1  0
 30 31  1  0
 31 32  1  0
 28 33  1  0
 33 34  1  0
  4 35  1  0
 35 36  2  0
 36  1  1  0
 10  6  1  0
 23 12  1  0
 34 24  1  0
 21 17  1  0
 32 29  1  0
  1 37  1  0
  2 38  1  0
  3 39  1  0
  5 40  1  0
  5 41  1  0
 11 42  1  0
 13 43  1  0
 14 44  1  0
 16 45  1  0
 16 46  1  0
 18 47  1  0
 20 48  1  0
 22 49  1  0
 23 50  1  0
 24 51  1  0
 25 52  1  0
 25 53  1  0
 26 54  1  0
 26 55  1  0
 27 56  1  0
 27 57  1  0
 29 58  1  0
 30 59  1  0
 30 60  1  0
 31 61  1  0
 31 62  1  0
 32 63  1  0
 32 64  1  0
 33 65  1  0
 33 66  1  0
 34 67  1  0
 34 68  1  0
 35 69  1  0
 36 70  1  0
M  CHG  1  24   1
M  END
$$$$
