@<TRIPOS>MOLECULE
MOL
   70    75     1     0     0
SMALL
bcc


@<TRIPOS>ATOM
      1 C1          -0.9860     0.2340    -5.0580 ca         1 MOL      -0.101000
      2 C2          -1.7260     1.2500    -4.4570 ca         1 MOL      -0.125000
      3 C3          -1.0900     2.1970    -3.6530 ca         1 MOL      -0.117000
      4 C4           0.2950     2.1240    -3.4260 ca         1 MOL      -0.152300
      5 C5           0.9950     3.1310    -2.5480 c3         1 MOL       0.087600
      6 N1           0.3660     3.2570    -1.2440 na         1 MOL      -0.023400
      7 N2          -0.0530     4.4610    -0.8230 nc         1 MOL      -0.151800
      8 N3          -0.5990     4.2590     0.3650 nd         1 MOL      -0.017000
      9 N4          -0.5300     2.9390     0.7150 nd         1 MOL      -0.388000
     10 C6           0.0890     2.3230    -0.2760 cc         1 MOL       0.301800
     11 C7           0.3670     0.8500    -0.3380 c3         1 MOL       0.186500
     12 C8           1.8470     0.4910    -0.4380 ca         1 MOL      -0.163300
     13 C9           2.2440    -0.5990    -1.2300 ca         1 MOL      -0.110500
     14 C10          3.5840    -0.9800    -1.3070 ca         1 MOL      -0.097500
     15 C11          4.5690    -0.2820    -0.5980 ca         1 MOL      -0.064300
     16 C12          6.0070    -0.7490    -0.6350 c3         1 MOL       0.098600
     17 N5           6.2120    -1.8600     0.2750 na         1 MOL      -0.077400
     18 C13          6.7150    -1.8170     1.5370 cc         1 MOL       0.417400
     19 N6           6.7260    -3.0280     2.0440 nd         1 MOL      -0.666000
     20 C14          6.2340    -3.7950     1.0260 cd         1 MOL       0.519900
     21 N7           5.8890    -3.1220    -0.0760 nc         1 MOL      -0.538800
     22 C15          4.1870     0.8160     0.1800 ca         1 MOL      -0.097500
     23 C16          2.8440     1.1990     0.2580 ca         1 MOL      -0.110500
     24 N8          -0.3730     0.1130     0.8050 nx         1 MOL      -0.672400
     25 C17          0.2460     0.2580     2.1750 c3         1 MOL       0.121800
     26 C18         -0.8350     0.4820     3.2260 c3         1 MOL      -0.147400
     27 C19         -1.6510    -0.7530     3.5860 c3         1 MOL       0.180800
     28 N9          -2.3340    -1.4420     2.4930 n3         1 MOL      -0.770600
     29 C20         -3.4430    -0.6940     1.8990 cy         1 MOL       0.169500
     30 C21         -4.3770    -1.6430     1.0990 cy         1 MOL      -0.087900
     31 C22         -5.5570    -0.8730     1.7300 cy         1 MOL      -0.084400
     32 C23         -4.6130    -0.5720     2.9140 cy         1 MOL      -0.087900
     33 C24         -1.4420    -2.1060     1.5450 c3         1 MOL       0.191800
     34 C25         -0.7710    -1.2900     0.4240 c3         1 MOL       0.055800
     35 C26          1.0320     1.1140    -4.0630 ca         1 MOL      -0.117000
     36 C27          0.3920     0.1700    -4.8670 ca         1 MOL      -0.125000
     37 H1          -1.4810    -0.4890    -5.7030 ha         1 MOL       0.153000
     38 H2          -2.7970     1.3200    -4.6400 ha         1 MOL       0.150500
     39 H3          -1.6870     3.0010    -3.2240 ha         1 MOL       0.140500
     40 H4           2.0390     2.8560    -2.3650 h1         1 MOL       0.099700
     41 H5           0.9850     4.1120    -3.0380 h1         1 MOL       0.099700
     42 H6          -0.1350     0.4910    -1.2440 hx         1 MOL       0.121700
     43 H7           1.5190    -1.1780    -1.8020 ha         1 MOL       0.146500
     44 H8           3.8600    -1.8490    -1.9080 ha         1 MOL       0.168000
     45 H9           6.6930     0.0560    -0.3500 h1         1 MOL       0.083200
     46 H10          6.2880    -1.0780    -1.6430 h1         1 MOL       0.083200
     47 H11          7.0470    -0.9120     2.0270 h5         1 MOL       0.077100
     48 H12          6.1220    -4.8700     1.0930 h5         1 MOL       0.080100
     49 H13          4.9310     1.3790     0.7440 ha         1 MOL       0.168000
     50 H14          2.6020     2.0610     0.8800 ha         1 MOL       0.146500
     51 H15         -1.2520     0.6430     0.8680 hn         1 MOL       0.458800
     52 H16          0.8710    -0.6200     2.3710 hx         1 MOL       0.105200
     53 H17          0.8840     1.1440     2.1690 hx         1 MOL       0.105200
     54 H18         -1.5030     1.2960     2.9190 hc         1 MOL       0.090700
     55 H19         -0.3430     0.8310     4.1430 hc         1 MOL       0.090700
     56 H20         -2.3780    -0.4710     4.3560 h1         1 MOL       0.078700
     57 H21         -0.9910    -1.4720     4.0900 h1         1 MOL       0.078700
     58 H22         -3.2030     0.2400     1.3830 h1         1 MOL       0.000700
     59 H23         -4.3020    -1.5750     0.0110 hc         1 MOL       0.062200
     60 H24         -4.3590    -2.7010     1.3910 hc         1 MOL       0.062200
     61 H25         -6.4430    -1.4670     1.9660 hc         1 MOL       0.066700
     62 H26         -5.8600     0.0160     1.1660 hc         1 MOL       0.066700
     63 H27         -4.6530    -1.3390     3.6970 hc         1 MOL       0.062200
     64 H28         -4.7390     0.4110     3.3750 hc         1 MOL       0.062200
     65 H29         -0.6500    -2.6160     2.1110 h1         1 MOL       0.085200
     66 H30         -1.9820    -2.9330     1.0660 h1         1 MOL       0.085200
     67 H31         -1.4600    -1.1900    -0.4220 hx         1 MOL       0.095200
     68 H32          0.1270    -1.8160     0.0900 hx         1 MOL       0.095200
     69 H33          2.1150     1.0580    -3.9550 ha         1 MOL       0.140500
     70 H34          0.9710    -0.6040    -5.3690 ha         1 MOL       0.150500
@<TRIPOS>BOND
     1     1     2 ar  
     2     2     3 ar  
     3     3     4 ar  
     4     4     5 1   
     5     5     6 1   
     6     6     7 1   
     7     7     8 2   
     8     8     9 1   
     9     9    10 2   
    10    10    11 1   
    11    11    12 1   
    12    12    13 ar  
    13    13    14 ar  
    14    14    15 ar  
    15    15    16 1   
    16    16    17 1   
    17    17    18 1   
    18    18    19 2   
    19    19    20 1   
    20    20    21 2   
    21    15    22 ar  
    22    22    23 ar  
    23    11    24 1   
    24    24    25 1   
    25    25    26 1   
    26    26    27 1   
    27    27    28 1   
    28    28    29 1   
    29    29    30 1   
    30    30    31 1   
    31    31    32 1   
    32    28    33 1   
    33    33    34 1   
    34     4    35 ar  
    35    35    36 ar  
    36    36     1 ar  
    37    10     6 1   
    38    23    12 ar  
    39    34    24 1   
    40    21    17 1   
    41    32    29 1   
    42     1    37 1   
    43     2    38 1   
    44     3    39 1   
    45     5    40 1   
    46     5    41 1   
    47    11    42 1   
    48    13    43 1   
    49    14    44 1   
    50    16    45 1   
    51    16    46 1   
    52    18    47 1   
    53    20    48 1   
    54    22    49 1   
    55    23    50 1   
    56    24    51 1   
    57    25    52 1   
    58    25    53 1   
    59    26    54 1   
    60    26    55 1   
    61    27    56 1   
    62    27    57 1   
    63    29    58 1   
    64    30    59 1   
    65    30    60 1   
    66    31    61 1   
    67    31    62 1   
    68    32    63 1   
    69    32    64 1   
    70    33    65 1   
    71    33    66 1   
    72    34    67 1   
    73    34    68 1   
    74    35    69 1   
    75    36    70 1   
@<TRIPOS>SUBSTRUCTURE
     1 MOL         1 TEMP              0 ****  ****    0 ROOT
