@<TRIPOS>MOLECULE
MOL
  135   137     1     0     0
SMALL
bcc


@<TRIPOS>ATOM
      1 C1          -3.5950     1.7960    -6.8480 c3         1 MOL      -0.097100
      2 C2          -2.8360     0.6710    -6.1640 c3         1 MOL      -0.085400
      3 C3          -2.9970     0.6130    -4.6290 c3         1 MOL       0.152100
      4 O1          -2.1470    -0.4650    -4.1470 os         1 MOL      -0.443900
      5 C4          -0.8380    -0.1430    -3.9370 c          1 MOL       0.630100
      6 O2          -0.3700     0.9810    -4.0520 o          1 MOL      -0.552000
      7 C5          -0.0430    -1.3710    -3.5160 c3         1 MOL      -0.126700
      8 C6           0.6810    -1.8830    -4.7610 c3         1 MOL      -0.082100
      9 C7           0.8630    -0.9680    -2.3240 c3         1 MOL       0.155100
     10 O3           2.1020    -0.4520    -2.8470 os         1 MOL      -0.449600
     11 C8           2.4370     0.8360    -2.3170 c3         1 MOL       0.319900
     12 C9           3.7550     1.2630    -2.9500 c3         1 MOL      -0.126400
     13 C10          4.1570     2.6810    -2.5060 c3         1 MOL       0.129800
     14 C11          3.6810     3.7480    -3.5060 c3         1 MOL      -0.122100
     15 O4           5.5950     2.7530    -2.3250 os         1 MOL      -0.425600
     16 C12          6.3850     2.6250    -3.5020 c3         1 MOL       0.119700
     17 C13          3.5430     3.0050    -1.1090 c3         1 MOL       0.127100
     18 O5           4.3430     3.9790    -0.4330 oh         1 MOL      -0.585800
     19 C14          3.4140     1.7140    -0.2850 c3         1 MOL       0.115100
     20 C15          2.8940     1.9790     1.1240 c3         1 MOL      -0.098100
     21 O6           2.5140     0.7770    -0.8920 os         1 MOL      -0.438600
     22 C16          1.2380    -2.0760    -1.2950 c3         1 MOL      -0.070700
     23 C17          1.3890    -3.4840    -1.8790 c3         1 MOL      -0.089100
     24 C18          0.4880    -1.9840     0.0760 c3         1 MOL       0.160100
     25 O7           1.2080    -2.8800     0.9630 os         1 MOL      -0.443600
     26 C19          1.5310    -2.2960     2.2210 c3         1 MOL       0.315900
     27 O8           2.8510    -1.7500     2.2250 os         1 MOL      -0.426600
     28 C20          3.9260    -2.6490     2.4900 c3         1 MOL       0.155100
     29 C21          4.1230    -3.6610     1.3630 c3         1 MOL      -0.130100
     30 C22          3.7760    -3.3060     3.8750 c3         1 MOL      -0.128400
     31 C23          2.3570    -3.1340     4.4010 c3         1 MOL       0.120500
     32 N1           2.0220    -4.0180     5.6060 nx         1 MOL      -0.674400
     33 C24          2.5380    -3.4690     6.9020 c3         1 MOL       0.084100
     34 C25          2.2880    -5.4860     5.4650 c3         1 MOL       0.084100
     35 C26          1.3360    -3.3810     3.2950 c3         1 MOL       0.109100
     36 O9           0.0170    -3.3710     3.8720 oh         1 MOL      -0.639800
     37 C27         -1.0400    -2.3240     0.2220 c3         1 MOL       0.148800
     38 C28         -1.3710    -3.7300    -0.3080 c3         1 MOL      -0.120100
     39 O10         -1.3550    -2.3910     1.6440 oh         1 MOL      -0.653800
     40 C29         -2.0160    -1.3050    -0.4170 c3         1 MOL      -0.115400
     41 C30         -2.3320     0.0040     0.3410 c3         1 MOL      -0.128000
     42 C31         -1.2520     1.0790     0.3090 c3         1 MOL      -0.096100
     43 C32         -3.6540     0.5630    -0.2220 c2         1 MOL       0.350300
     44 N2          -4.7900     0.5410     0.4150 n2         1 MOL      -0.418200
     45 O11         -4.6810    -0.0300     1.6910 os         1 MOL      -0.227300
     46 C33         -5.3940     0.7850     2.6310 c3         1 MOL       0.331200
     47 O12         -4.5940     1.9010     3.0180 os         1 MOL      -0.429600
     48 C34         -5.3220     2.7880     3.8650 c3         1 MOL       0.124400
     49 C35         -4.4440     3.9830     4.2190 c3         1 MOL       0.090400
     50 O13         -5.1620     4.8460     5.0980 os         1 MOL      -0.436600
     51 C36         -4.4020     6.0020     5.4300 c3         1 MOL       0.115700
     52 C37         -3.6790     1.1160    -1.6600 c3         1 MOL      -0.121000
     53 C38         -4.1780     2.5600    -1.6410 c3         1 MOL      -0.099100
     54 C39         -4.5060     0.1510    -2.5480 c3         1 MOL       0.125100
     55 O14         -5.8990     0.2170    -2.1720 oh         1 MOL      -0.596800
     56 C40         -4.4460     0.3930    -4.0950 c3         1 MOL       0.134800
     57 C41         -5.1350    -0.7900    -4.8030 c3         1 MOL      -0.128100
     58 O15         -5.2400     1.5580    -4.3720 oh         1 MOL      -0.600800
     59 H1          -3.2870     1.8700    -7.8960 hc         1 MOL       0.045367
     60 H2          -4.6740     1.6200    -6.8400 hc         1 MOL       0.045367
     61 H3          -3.3910     2.7590    -6.3690 hc         1 MOL       0.045367
     62 H4          -1.7700     0.7950    -6.3980 hc         1 MOL       0.049700
     63 H5          -3.1040    -0.2910    -6.6140 hc         1 MOL       0.049700
     64 H6          -2.6460     1.5750    -4.2320 h1         1 MOL       0.091700
     65 H7          -0.7640    -2.1230    -3.1790 hc         1 MOL       0.084700
     66 H8           1.3020    -2.7540    -4.5450 hc         1 MOL       0.054700
     67 H9          -0.0460    -2.1770    -5.5270 hc         1 MOL       0.054700
     68 H10          1.3170    -1.1110    -5.2090 hc         1 MOL       0.054700
     69 H11          0.3590    -0.1700    -1.7710 h1         1 MOL       0.073700
     70 H12          1.6490     1.5450    -2.5920 h2         1 MOL       0.111700
     71 H13          4.5330     0.5430    -2.6580 hc         1 MOL       0.071700
     72 H14          3.6920     1.1910    -4.0430 hc         1 MOL       0.071700
     73 H15          2.5880     3.7850    -3.5630 hc         1 MOL       0.054700
     74 H16          4.0490     4.7400    -3.2210 hc         1 MOL       0.054700
     75 H17          4.0530     3.5490    -4.5160 hc         1 MOL       0.054700
     76 H18          6.0990     1.7500    -4.0920 h1         1 MOL       0.039367
     77 H19          7.4280     2.5060    -3.1970 h1         1 MOL       0.039367
     78 H20          6.3160     3.5310    -4.1110 h1         1 MOL       0.039367
     79 H21          2.5400     3.4320    -1.2320 h1         1 MOL       0.085700
     80 H22          5.2440     3.8660    -0.8020 ho         1 MOL       0.416000
     81 H23          4.3940     1.2300    -0.1890 h1         1 MOL       0.044700
     82 H24          3.5710     2.6240     1.6920 hc         1 MOL       0.050033
     83 H25          2.7730     1.0380     1.6700 hc         1 MOL       0.050033
     84 H26          1.9060     2.4510     1.0910 hc         1 MOL       0.050033
     85 H27          2.2770    -1.8520    -1.0000 hc         1 MOL       0.084700
     86 H28          0.4910    -3.8380    -2.3860 hc         1 MOL       0.043700
     87 H29          2.2060    -3.5020    -2.6080 hc         1 MOL       0.043700
     88 H30          1.6480    -4.2160    -1.1070 hc         1 MOL       0.043700
     89 H31          0.6480    -0.9630     0.4340 h1         1 MOL       0.073700
     90 H32          0.8560    -1.4620     2.4490 h2         1 MOL       0.126700
     91 H33          4.8310    -2.0310     2.5120 h1         1 MOL       0.089700
     92 H34          4.1540    -3.1530     0.3940 hc         1 MOL       0.062367
     93 H35          5.0590    -4.2140     1.4970 hc         1 MOL       0.062367
     94 H36          3.3100    -4.3920     1.3190 hc         1 MOL       0.062367
     95 H37          4.4720    -2.8270     4.5760 hc         1 MOL       0.069200
     96 H38          4.0840    -4.3560     3.8210 hc         1 MOL       0.069200
     97 H39          2.2190    -2.1080     4.7690 hx         1 MOL       0.124700
     98 H40          0.9880    -3.9340     5.6400 hn         1 MOL       0.474800
     99 H41          2.1460    -4.0870     7.7140 hx         1 MOL       0.102367
    100 H42          3.6310    -3.5000     6.8830 hx         1 MOL       0.102367
    101 H43          2.1740    -2.4440     7.0120 hx         1 MOL       0.102367
    102 H44          3.3660    -5.6580     5.5170 hx         1 MOL       0.102367
    103 H45          1.8770    -5.8350     4.5160 hx         1 MOL       0.102367
    104 H46          1.7830    -5.9970     6.2900 hx         1 MOL       0.102367
    105 H47          1.4660    -4.3760     2.8540 h1         1 MOL       0.079700
    106 H48         -0.5930    -3.1570     3.1240 ho         1 MOL       0.471000
    107 H49         -1.3880    -3.7610    -1.3990 hc         1 MOL       0.050700
    108 H50         -0.6640    -4.4780     0.0660 hc         1 MOL       0.050700
    109 H51         -2.3600    -4.0550     0.0400 hc         1 MOL       0.050700
    110 H52         -2.3280    -2.4780     1.7110 ho         1 MOL       0.425000
    111 H53         -2.9800    -1.8260    -0.5170 hc         1 MOL       0.062200
    112 H54         -1.7200    -1.0820    -1.4400 hc         1 MOL       0.062200
    113 H55         -2.4810    -0.2320     1.3970 hc         1 MOL       0.074700
    114 H56         -0.4020     0.8040     0.9370 hc         1 MOL       0.046033
    115 H57         -0.8840     1.2750    -0.7010 hc         1 MOL       0.046033
    116 H58         -1.6420     2.0270     0.6980 hc         1 MOL       0.046033
    117 H59         -5.5980     0.1660     3.5120 h2         1 MOL       0.089700
    118 H60         -6.3470     1.1110     2.1960 h2         1 MOL       0.089700
    119 H61         -6.2300     3.1370     3.3580 h1         1 MOL       0.068700
    120 H62         -5.6290     2.2650     4.7790 h1         1 MOL       0.068700
    121 H63         -4.1620     4.5200     3.3060 h1         1 MOL       0.042700
    122 H64         -3.5220     3.6390     4.7030 h1         1 MOL       0.042700
    123 H65         -3.4750     5.7170     5.9390 h1         1 MOL       0.037700
    124 H66         -4.1750     6.5830     4.5310 h1         1 MOL       0.037700
    125 H67         -4.9960     6.6230     6.1070 h1         1 MOL       0.037700
    126 H68         -2.6470     1.1270    -2.0130 hc         1 MOL       0.070700
    127 H69         -5.2410     2.6270    -1.3910 hc         1 MOL       0.051700
    128 H70         -4.0250     3.0410    -2.6110 hc         1 MOL       0.051700
    129 H71         -3.6320     3.1470    -0.8940 hc         1 MOL       0.051700
    130 H72         -4.1800    -0.8770    -2.3480 h1         1 MOL       0.071700
    131 H73         -5.9400     0.2110    -1.1920 ho         1 MOL       0.416000
    132 H74         -5.2730    -0.5950    -5.8720 hc         1 MOL       0.056367
    133 H75         -4.5640    -1.7170    -4.6850 hc         1 MOL       0.056367
    134 H76         -6.1440    -0.9590    -4.4100 hc         1 MOL       0.056367
    135 H77         -6.0520     1.4450    -3.8330 ho         1 MOL       0.417000
@<TRIPOS>BOND
     1     1     2 1   
     2     2     3 1   
     3     3     4 1   
     4     4     5 1   
     5     5     6 2   
     6     5     7 1   
     7     7     8 1   
     8     7     9 1   
     9     9    10 1   
    10    10    11 1   
    11    11    12 1   
    12    12    13 1   
    13    13    14 1   
    14    13    15 1   
    15    15    16 1   
    16    13    17 1   
    17    17    18 1   
    18    17    19 1   
    19    19    20 1   
    20    19    21 1   
    21     9    22 1   
    22    22    23 1   
    23    22    24 1   
    24    24    25 1   
    25    25    26 1   
    26    26    27 1   
    27    27    28 1   
    28    28    29 1   
    29    28    30 1   
    30    30    31 1   
    31    31    32 1   
    32    32    33 1   
    33    32    34 1   
    34    31    35 1   
    35    35    36 1   
    36    24    37 1   
    37    37    38 1   
    38    37    39 1   
    39    37    40 1   
    40    40    41 1   
    41    41    42 1   
    42    41    43 1   
    43    43    44 2   
    44    44    45 1   
    45    45    46 1   
    46    46    47 1   
    47    47    48 1   
    48    48    49 1   
    49    49    50 1   
    50    50    51 1   
    51    43    52 1   
    52    52    53 1   
    53    52    54 1   
    54    54    55 1   
    55    54    56 1   
    56    56    57 1   
    57    56    58 1   
    58    56     3 1   
    59    21    11 1   
    60    35    26 1   
    61     1    59 1   
    62     1    60 1   
    63     1    61 1   
    64     2    62 1   
    65     2    63 1   
    66     3    64 1   
    67     7    65 1   
    68     8    66 1   
    69     8    67 1   
    70     8    68 1   
    71     9    69 1   
    72    11    70 1   
    73    12    71 1   
    74    12    72 1   
    75    14    73 1   
    76    14    74 1   
    77    14    75 1   
    78    16    76 1   
    79    16    77 1   
    80    16    78 1   
    81    17    79 1   
    82    18    80 1   
    83    19    81 1   
    84    20    82 1   
    85    20    83 1   
    86    20    84 1   
    87    22    85 1   
    88    23    86 1   
    89    23    87 1   
    90    23    88 1   
    91    24    89 1   
    92    26    90 1   
    93    28    91 1   
    94    29    92 1   
    95    29    93 1   
    96    29    94 1   
    97    30    95 1   
    98    30    96 1   
    99    31    97 1   
   100    32    98 1   
   101    33    99 1   
   102    33   100 1   
   103    33   101 1   
   104    34   102 1   
   105    34   103 1   
   106    34   104 1   
   107    35   105 1   
   108    36   106 1   
   109    38   107 1   
   110    38   108 1   
   111    38   109 1   
   112    39   110 1   
   113    40   111 1   
   114    40   112 1   
   115    41   113 1   
   116    42   114 1   
   117    42   115 1   
   118    42   116 1   
   119    46   117 1   
   120    46   118 1   
   121    48   119 1   
   122    48   120 1   
   123    49   121 1   
   124    49   122 1   
   125    51   123 1   
   126    51   124 1   
   127    51   125 1   
   128    52   126 1   
   129    53   127 1   
   130    53   128 1   
   131    53   129 1   
   132    54   130 1   
   133    55   131 1   
   134    57   132 1   
   135    57   133 1   
   136    57   134 1   
   137    58   135 1   
@<TRIPOS>SUBSTRUCTURE
     1 MOL         1 TEMP              0 ****  ****    0 ROOT
