
     RDKit          3D

135137  0  0  0  0  0  0  0  0999 V2000
   -3.5948    1.7958   -6.8480 C   0  0  0  0  0  0  0  0  0  0  0  0
   -2.8355    0.6714   -6.1639 C   0  0  0  0  0  0  0  0  0  0  0  0
   -2.9968    0.6128   -4.6287 C   0  0  2  0  0  0  0  0  0  0  0  0
   -2.1474   -0.4650   -4.1469 O   0  0  0  0  0  0  0  0  0  0  0  0
   -0.8375   -0.1431   -3.9369 C   0  0  0  0  0  0  0  0  0  0  0  0
   -0.3702    0.9811   -4.0517 O   0  0  0  0  0  0  0  0  0  0  0  0
   -0.0426   -1.3711   -3.5162 C   0  0  1  0  0  0  0  0  0  0  0  0
    0.6809   -1.8826   -4.7605 C   0  0  0  0  0  0  0  0  0  0  0  0
    0.8625   -0.9681   -2.3238 C   0  0  2  0  0  0  0  0  0  0  0  0
    2.1022   -0.4515   -2.8466 O   0  0  0  0  0  0  0  0  0  0  0  0
    2.4374    0.8359   -2.3170 C   0  0  2  0  0  0  0  0  0  0  0  0
    3.7549    1.2628   -2.9495 C   0  0  0  0  0  0  0  0  0  0  0  0
    4.1570    2.6811   -2.5057 C   0  0  2  0  0  0  0  0  0  0  0  0
    3.6814    3.7484   -3.5055 C   0  0  0  0  0  0  0  0  0  0  0  0
    5.5947    2.7526   -2.3247 O   0  0  0  0  0  0  0  0  0  0  0  0
    6.3846    2.6246   -3.5025 C   0  0  0  0  0  0  0  0  0  0  0  0
    3.5429    3.0046   -1.1091 C   0  0  2  0  0  0  0  0  0  0  0  0
    4.3427    3.9791   -0.4329 O   0  0  0  0  0  0  0  0  0  0  0  0
    3.4145    1.7139   -0.2855 C   0  0  1  0  0  0  0  0  0  0  0  0
    2.8939    1.9794    1.1239 C   0  0  0  0  0  0  0  0  0  0  0  0
    2.5142    0.7770   -0.8923 O   0  0  0  0  0  0  0  0  0  0  0  0
    1.2379   -2.0756   -1.2946 C   0  0  2  0  0  0  0  0  0  0  0  0
    1.3886   -3.4844   -1.8791 C   0  0  0  0  0  0  0  0  0  0  0  0
    0.4885   -1.9839    0.0756 C   0  0  2  0  0  0  0  0  0  0  0  0
    1.2084   -2.8795    0.9626 O   0  0  0  0  0  0  0  0  0  0  0  0
    1.5314   -2.2961    2.2215 C   0  0  2  0  0  0  0  0  0  0  0  0
    2.8507   -1.7501    2.2246 O   0  0  0  0  0  0  0  0  0  0  0  0
    3.9260   -2.6493    2.4897 C   0  0  2  0  0  0  0  0  0  0  0  0
    4.1231   -3.6611    1.3633 C   0  0  0  0  0  0  0  0  0  0  0  0
    3.7765   -3.3064    3.8753 C   0  0  0  0  0  0  0  0  0  0  0  0
    2.3571   -3.1344    4.4010 C   0  0  2  0  0  0  0  0  0  0  0  0
    2.0221   -4.0176    5.6057 N   0  0  0  0  0  0  0  0  0  0  0  0
    2.5382   -3.4693    6.9016 C   0  0  0  0  0  0  0  0  0  0  0  0
    2.2885   -5.4861    5.4651 C   0  0  0  0  0  0  0  0  0  0  0  0
    1.3358   -3.3812    3.2946 C   0  0  1  0  0  0  0  0  0  0  0  0
    0.0174   -3.3710    3.8722 O   0  0  0  0  0  0  0  0  0  0  0  0
   -1.0404   -2.3241    0.2223 C   0  0  1  0  0  0  0  0  0  0  0  0
   -1.3713   -3.7296   -0.3080 C   0  0  0  0  0  0  0  0  0  0  0  0
   -1.3547   -2.3907    1.6436 O   0  0  0  0  0  0  0  0  0  0  0  0
   -2.0157   -1.3050   -0.4172 C   0  0  0  0  0  0  0  0  0  0  0  0
   -2.3319    0.0040    0.3405 C   0  0  1  0  0  0  0  0  0  0  0  0
   -1.2520    1.0794    0.3088 C   0  0  0  0  0  0  0  0  0  0  0  0
   -3.6544    0.5626   -0.2224 C   0  0  0  0  0  0  0  0  0  0  0  0
   -4.7902    0.5412    0.4147 N   0  0  0  0  0  0  0  0  0  0  0  0
   -4.6808   -0.0299    1.6913 O   0  0  0  0  0  0  0  0  0  0  0  0
   -5.3943    0.7851    2.6315 C   0  0  0  0  0  0  0  0  0  0  0  0
   -4.5940    1.9015    3.0180 O   0  0  0  0  0  0  0  0  0  0  0  0
   -5.3218    2.7878    3.8646 C   0  0  0  0  0  0  0  0  0  0  0  0
   -4.4441    3.9830    4.2193 C   0  0  0  0  0  0  0  0  0  0  0  0
   -5.1620    4.8464    5.0980 O   0  0  0  0  0  0  0  0  0  0  0  0
   -4.4018    6.0022    5.4302 C   0  0  0  0  0  0  0  0  0  0  0  0
   -3.6788    1.1161   -1.6596 C   0  0  2  0  0  0  0  0  0  0  0  0
   -4.1777    2.5601   -1.6412 C   0  0  0  0  0  0  0  0  0  0  0  0
   -4.5060    0.1511   -2.5476 C   0  0  1  0  0  0  0  0  0  0  0  0
   -5.8994    0.2171   -2.1723 O   0  0  0  0  0  0  0  0  0  0  0  0
   -4.4457    0.3930   -4.0952 C   0  0  2  0  0  0  0  0  0  0  0  0
   -5.1351   -0.7901   -4.8034 C   0  0  0  0  0  0  0  0  0  0  0  0
   -5.2403    1.5582   -4.3724 O   0  0  0  0  0  0  0  0  0  0  0  0
   -3.2872    1.8700   -7.8964 H   0  0  0  0  0  0  0  0  0  0  0  0
   -4.6736    1.6197   -6.8397 H   0  0  0  0  0  0  0  0  0  0  0  0
   -3.3906    2.7585   -6.3686 H   0  0  0  0  0  0  0  0  0  0  0  0
   -1.7703    0.7954   -6.3979 H   0  0  0  0  0  0  0  0  0  0  0  0
   -3.1041   -0.2915   -6.6141 H   0  0  0  0  0  0  0  0  0  0  0  0
   -2.6463    1.5748   -4.2324 H   0  0  0  0  0  0  0  0  0  0  0  0
   -0.7641   -2.1233   -3.1790 H   0  0  0  0  0  0  0  0  0  0  0  0
    1.3023   -2.7543   -4.5455 H   0  0  0  0  0  0  0  0  0  0  0  0
   -0.0456   -2.1770   -5.5270 H   0  0  0  0  0  0  0  0  0  0  0  0
    1.3172   -1.1113   -5.2088 H   0  0  0  0  0  0  0  0  0  0  0  0
    0.3586   -0.1704   -1.7712 H   0  0  0  0  0  0  0  0  0  0  0  0
    1.6491    1.5454   -2.5924 H   0  0  0  0  0  0  0  0  0  0  0  0
    4.5329    0.5429   -2.6582 H   0  0  0  0  0  0  0  0  0  0  0  0
    3.6922    1.1914   -4.0428 H   0  0  0  0  0  0  0  0  0  0  0  0
    2.5882    3.7846   -3.5632 H   0  0  0  0  0  0  0  0  0  0  0  0
    4.0493    4.7405   -3.2211 H   0  0  0  0  0  0  0  0  0  0  0  0
    4.0535    3.5492   -4.5162 H   0  0  0  0  0  0  0  0  0  0  0  0
    6.0995    1.7498   -4.0917 H   0  0  0  0  0  0  0  0  0  0  0  0
    7.4280    2.5065   -3.1968 H   0  0  0  0  0  0  0  0  0  0  0  0
    6.3158    3.5310   -4.1106 H   0  0  0  0  0  0  0  0  0  0  0  0
    2.5396    3.4323   -1.2320 H   0  0  0  0  0  0  0  0  0  0  0  0
    5.2444    3.8664   -0.8023 H   0  0  0  0  0  0  0  0  0  0  0  0
    4.3942    1.2295   -0.1893 H   0  0  0  0  0  0  0  0  0  0  0  0
    3.5715    2.6239    1.6920 H   0  0  0  0  0  0  0  0  0  0  0  0
    2.7727    1.0378    1.6698 H   0  0  0  0  0  0  0  0  0  0  0  0
    1.9056    2.4511    1.0910 H   0  0  0  0  0  0  0  0  0  0  0  0
    2.2769   -1.8519   -0.9999 H   0  0  0  0  0  0  0  0  0  0  0  0
    0.4907   -3.8377   -2.3862 H   0  0  0  0  0  0  0  0  0  0  0  0
    2.2058   -3.5016   -2.6082 H   0  0  0  0  0  0  0  0  0  0  0  0
    1.6477   -4.2158   -1.1070 H   0  0  0  0  0  0  0  0  0  0  0  0
    0.6481   -0.9630    0.4343 H   0  0  0  0  0  0  0  0  0  0  0  0
    0.8562   -1.4625    2.4494 H   0  0  0  0  0  0  0  0  0  0  0  0
    4.8314   -2.0307    2.5118 H   0  0  0  0  0  0  0  0  0  0  0  0
    4.1538   -3.1531    0.3939 H   0  0  0  0  0  0  0  0  0  0  0  0
    5.0587   -4.2139    1.4972 H   0  0  0  0  0  0  0  0  0  0  0  0
    3.3097   -4.3916    1.3193 H   0  0  0  0  0  0  0  0  0  0  0  0
    4.4716   -2.8274    4.5762 H   0  0  0  0  0  0  0  0  0  0  0  0
    4.0836   -4.3560    3.8209 H   0  0  0  0  0  0  0  0  0  0  0  0
    2.2188   -2.1082    4.7689 H   0  0  0  0  0  0  0  0  0  0  0  0
    0.9875   -3.9342    5.6401 H   0  0  0  0  0  0  0  0  0  0  0  0
    2.1461   -4.0868    7.7140 H   0  0  0  0  0  0  0  0  0  0  0  0
    3.6307   -3.4998    6.8828 H   0  0  0  0  0  0  0  0  0  0  0  0
    2.1744   -2.4441    7.0117 H   0  0  0  0  0  0  0  0  0  0  0  0
    3.3660   -5.6576    5.5171 H   0  0  0  0  0  0  0  0  0  0  0  0
    1.8775   -5.8353    4.5164 H   0  0  0  0  0  0  0  0  0  0  0  0
    1.7834   -5.9971    6.2899 H   0  0  0  0  0  0  0  0  0  0  0  0
    1.4656   -4.3761    2.8543 H   0  0  0  0  0  0  0  0  0  0  0  0
   -0.5934   -3.1568    3.1241 H   0  0  0  0  0  0  0  0  0  0  0  0
   -1.3879   -3.7615   -1.3993 H   0  0  0  0  0  0  0  0  0  0  0  0
   -0.6645   -4.4775    0.0659 H   0  0  0  0  0  0  0  0  0  0  0  0
   -2.3595   -4.0552    0.0397 H   0  0  0  0  0  0  0  0  0  0  0  0
   -2.3278   -2.4785    1.7114 H   0  0  0  0  0  0  0  0  0  0  0  0
   -2.9804   -1.8257   -0.5166 H   0  0  0  0  0  0  0  0  0  0  0  0
   -1.7203   -1.0817   -1.4396 H   0  0  0  0  0  0  0  0  0  0  0  0
   -2.4809   -0.2317    1.3974 H   0  0  0  0  0  0  0  0  0  0  0  0
   -0.4017    0.8040    0.9374 H   0  0  0  0  0  0  0  0  0  0  0  0
   -0.8837    1.2746   -0.7010 H   0  0  0  0  0  0  0  0  0  0  0  0
   -1.6424    2.0267    0.6979 H   0  0  0  0  0  0  0  0  0  0  0  0
   -5.5979    0.1663    3.5117 H   0  0  0  0  0  0  0  0  0  0  0  0
   -6.3473    1.1111    2.1965 H   0  0  0  0  0  0  0  0  0  0  0  0
   -6.2301    3.1368    3.3581 H   0  0  0  0  0  0  0  0  0  0  0  0
   -5.6286    2.2648    4.7786 H   0  0  0  0  0  0  0  0  0  0  0  0
   -4.1624    4.5200    3.3056 H   0  0  0  0  0  0  0  0  0  0  0  0
   -3.5225    3.6390    4.7028 H   0  0  0  0  0  0  0  0  0  0  0  0
   -3.4753    5.7174    5.9388 H   0  0  0  0  0  0  0  0  0  0  0  0
   -4.1751    6.5832    4.5311 H   0  0  0  0  0  0  0  0  0  0  0  0
   -4.9956    6.6229    6.1067 H   0  0  0  0  0  0  0  0  0  0  0  0
   -2.6465    1.1274   -2.0134 H   0  0  0  0  0  0  0  0  0  0  0  0
   -5.2412    2.6265   -1.3906 H   0  0  0  0  0  0  0  0  0  0  0  0
   -4.0249    3.0409   -2.6115 H   0  0  0  0  0  0  0  0  0  0  0  0
   -3.6317    3.1474   -0.8945 H   0  0  0  0  0  0  0  0  0  0  0  0
   -4.1797   -0.8769   -2.3476 H   0  0  0  0  0  0  0  0  0  0  0  0
   -5.9402    0.2110   -1.1918 H   0  0  0  0  0  0  0  0  0  0  0  0
   -5.2727   -0.5950   -5.8718 H   0  0  0  0  0  0  0  0  0  0  0  0
   -4.5645   -1.7167   -4.6851 H   0  0  0  0  0  0  0  0  0  0  0  0
   -6.1441   -0.9587   -4.4099 H   0  0  0  0  0  0  0  0  0  0  0  0
   -6.0522    1.4447   -3.8335 H   0  0  0  0  0  0  0  0  0  0  0  0
  1  2  1  0
  2  3  1  0
  3  4  1  0
  4  5  1  0
  5  6  2  0
  5  7  1  0
  7  8  1  0
  7  9  1  0
  9 10  1  0
 10 11  1  0
 11 12  1  0
 12 13  1  0
 13 14  1  0
 13 15  1  1
 15 16  1  0
 13 17  1  0
 17 18  1  0
 17 19  1  0
 19 20  1  0
 19 21  1  0
  9 22  1  0
 22 23  1  0
 22 24  1  0
 24 25  1  0
 25 26  1  0
 26 27  1  0
 27 28  1  0
 28 29  1  0
 28 30  1  0
 30 31  1  0
 31 32  1  0
 32 33  1  0
 32 34  1  0
 31 35  1  0
 35 36  1  0
 24 37  1  0
 37 38  1  0
 37 39  1  1
 37 40  1  0
 40 41  1  0
 41 42  1  0
 41 43  1  0
 43 44  2  0
 44 45  1  0
 45 46  1  0
 46 47  1  0
 47 48  1  0
 48 49  1  0
 49 50  1  0
 50 51  1  0
 43 52  1  0
 52 53  1  0
 52 54  1  0
 54 55  1  0
 54 56  1  0
 56 57  1  0
 56 58  1  1
 56  3  1  0
 21 11  1  0
 35 26  1  0
  1 59  1  0
  1 60  1  0
  1 61  1  0
  2 62  1  0
  2 63  1  0
  3 64  1  1
  7 65  1  1
  8 66  1  0
  8 67  1  0
  8 68  1  0
  9 69  1  1
 11 70  1  1
 12 71  1  0
 12 72  1  0
 14 73  1  0
 14 74  1  0
 14 75  1  0
 16 76  1  0
 16 77  1  0
 16 78  1  0
 17 79  1  6
 18 80  1  0
 19 81  1  1
 20 82  1  0
 20 83  1  0
 20 84  1  0
 22 85  1  1
 23 86  1  0
 23 87  1  0
 23 88  1  0
 24 89  1  1
 26 90  1  1
 28 91  1  1
 29 92  1  0
 29 93  1  0
 29 94  1  0
 30 95  1  0
 30 96  1  0
 31 97  1  1
 32 98  1  0
 33 99  1  0
 33100  1  0
 33101  1  0
 34102  1  0
 34103  1  0
 34104  1  0
 35105  1  6
 36106  1  0
 38107  1  0
 38108  1  0
 38109  1  0
 39110  1  0
 40111  1  0
 40112  1  0
 41113  1  1
 42114  1  0
 42115  1  0
 42116  1  0
 46117  1  0
 46118  1  0
 48119  1  0
 48120  1  0
 49121  1  0
 49122  1  0
 51123  1  0
 51124  1  0
 51125  1  0
 52126  1  6
 53127  1  0
 53128  1  0
 53129  1  0
 54130  1  6
 55131  1  0
 57132  1  0
 57133  1  0
 57134  1  0
 58135  1  0
M  CHG  1  32   1
M  END
$$$$
