
     RDKit          3D

 48 51  0  0  0  0  0  0  0  0999 V2000
   -0.7407   -3.2882   -1.0848 O   0  0  0  0  0  0  0  0  0  0  0  0
   -0.8310   -2.9310   -2.2495 C   0  0  0  0  0  0  0  0  0  0  0  0
    0.0036   -2.0399   -2.9475 N   0  0  0  0  0  0  0  0  0  0  0  0
    1.1604   -1.3541   -2.4196 C   0  0  0  0  0  0  0  0  0  0  0  0
    1.0643    0.1675   -2.5419 C   0  0  0  0  0  0  0  0  0  0  0  0
   -0.0952    0.7756   -1.7428 C   0  0  0  0  0  0  0  0  0  0  0  0
   -0.0215    0.4879   -0.3031 N   0  0  0  0  0  0  0  0  0  0  0  0
   -1.3268    0.7555    0.3433 C   0  0  0  0  0  0  0  0  0  0  0  0
   -1.3232    0.4770    1.8635 C   0  0  0  0  0  0  0  0  0  0  0  0
   -0.2309    1.2092    2.5350 N   0  0  0  0  0  0  0  0  0  0  0  0
   -0.3316    1.4181    3.9068 C   0  0  0  0  0  0  0  0  0  0  0  0
    0.7023    1.0904    4.7993 C   0  0  0  0  0  0  0  0  0  0  0  0
    0.5875    1.3125    6.1773 C   0  0  0  0  0  0  0  0  0  0  0  0
   -0.5709    1.8796    6.6965 C   0  0  0  0  0  0  0  0  0  0  0  0
   -1.6032    2.2231    5.8319 C   0  0  0  0  0  0  0  0  0  0  0  0
   -3.0375    2.9402    6.4603 Cl  0  0  0  0  0  0  0  0  0  0  0  0
   -1.4855    1.9980    4.4578 C   0  0  0  0  0  0  0  0  0  0  0  0
    1.0858    1.0341    1.9003 C   0  0  0  0  0  0  0  0  0  0  0  0
    1.0133    1.2978    0.3775 C   0  0  0  0  0  0  0  0  0  0  0  0
   -0.4117   -1.9053   -4.2616 N   0  0  0  0  0  0  0  0  0  0  0  0
   -1.4527   -2.6766   -4.3297 C   0  0  0  0  0  0  0  0  0  0  0  0
   -2.3143   -2.9262   -5.5045 C   0  0  0  0  0  0  0  0  0  0  0  0
   -3.3498   -3.7698   -5.3536 C   0  0  0  0  0  0  0  0  0  0  0  0
   -3.6186   -4.4189   -4.0820 C   0  0  0  0  0  0  0  0  0  0  0  0
   -2.8235   -4.1787   -3.0280 C   0  0  0  0  0  0  0  0  0  0  0  0
   -1.7703   -3.3199   -3.1765 N   0  0  0  0  0  0  0  0  0  0  0  0
    2.0268   -1.7092   -2.9892 H   0  0  0  0  0  0  0  0  0  0  0  0
    1.3146   -1.6557   -1.3782 H   0  0  0  0  0  0  0  0  0  0  0  0
    0.9350    0.4417   -3.5966 H   0  0  0  0  0  0  0  0  0  0  0  0
    2.0160    0.6111   -2.2289 H   0  0  0  0  0  0  0  0  0  0  0  0
   -1.0287    0.3682   -2.1519 H   0  0  0  0  0  0  0  0  0  0  0  0
   -0.1332    1.8581   -1.9215 H   0  0  0  0  0  0  0  0  0  0  0  0
   -1.6227    1.7999    0.1743 H   0  0  0  0  0  0  0  0  0  0  0  0
   -2.0964    0.1195   -0.1110 H   0  0  0  0  0  0  0  0  0  0  0  0
   -2.3089    0.7531    2.2525 H   0  0  0  0  0  0  0  0  0  0  0  0
   -1.1943   -0.5986    2.0414 H   0  0  0  0  0  0  0  0  0  0  0  0
    1.6175    0.6289    4.4387 H   0  0  0  0  0  0  0  0  0  0  0  0
    1.4043    1.0373    6.8394 H   0  0  0  0  0  0  0  0  0  0  0  0
   -0.6607    2.0528    7.7647 H   0  0  0  0  0  0  0  0  0  0  0  0
   -2.2969    2.3105    3.8068 H   0  0  0  0  0  0  0  0  0  0  0  0
    1.8139    1.7379    2.3223 H   0  0  0  0  0  0  0  0  0  0  0  0
    1.4509    0.0147    2.0789 H   0  0  0  0  0  0  0  0  0  0  0  0
    2.0011    1.0751   -0.0400 H   0  0  0  0  0  0  0  0  0  0  0  0
    0.8224    2.3671    0.2138 H   0  0  0  0  0  0  0  0  0  0  0  0
   -2.0771   -2.4233   -6.4315 H   0  0  0  0  0  0  0  0  0  0  0  0
   -4.0131   -3.9882   -6.1851 H   0  0  0  0  0  0  0  0  0  0  0  0
   -4.4651   -5.0938   -4.0085 H   0  0  0  0  0  0  0  0  0  0  0  0
   -2.9643   -4.6292   -2.0512 H   0  0  0  0  0  0  0  0  0  0  0  0
  1  2  2  0
  2  3  1  0
  3  4  1  0
  4  5  1  0
  5  6  1  0
  6  7  1  0
  7  8  1  0
  8  9  1  0
  9 10  1  0
 10 11  1  0
 11 12  2  0
 12 13  1  0
 13 14  2  0
 14 15  1  0
 15 16  1  0
 15 17  2  0
 10 18  1  0
 18 19  1  0
  3 20  1  0
 20 21  2  0
 21 22  1  0
 22 23  2  0
 23 24  1  0
 24 25  2  0
 25 26  1  0
 26  2  1  0
 19  7  1  0
 26 21  1  0
 17 11  1  0
  4 27  1  0
  4 28  1  0
  5 29  1  0
  5 30  1  0
  6 31  1  0
  6 32  1  0
  8 33  1  0
  8 34  1  0
  9 35  1  0
  9 36  1  0
 12 37  1  0
 13 38  1  0
 14 39  1  0
 17 40  1  0
 18 41  1  0
 18 42  1  0
 19 43  1  0
 19 44  1  0
 22 45  1  0
 23 46  1  0
 24 47  1  0
 25 48  1  0
M  END
$$$$
