@<TRIPOS>MOLECULE
MOL
   48    51     1     0     0
SMALL
bcc


@<TRIPOS>ATOM
      1 O1          -0.7410    -3.2880    -1.0850 o          1 MOL      -0.611500
      2 C1          -0.8310    -2.9310    -2.2490 c          1 MOL       0.634300
      3 N1           0.0040    -2.0400    -2.9470 n          1 MOL      -0.166800
      4 C2           1.1600    -1.3540    -2.4200 c3         1 MOL       0.102000
      5 C3           1.0640     0.1680    -2.5420 c3         1 MOL      -0.107400
      6 C4          -0.0950     0.7760    -1.7430 c3         1 MOL       0.172800
      7 N2          -0.0210     0.4880    -0.3030 n3         1 MOL      -0.746600
      8 C5          -1.3270     0.7550     0.3430 c3         1 MOL       0.167300
      9 C6          -1.3230     0.4770     1.8630 c3         1 MOL       0.186300
     10 N3          -0.2310     1.2090     2.5350 nh         1 MOL      -0.638000
     11 C7          -0.3320     1.4180     3.9070 ca         1 MOL       0.151600
     12 C8           0.7020     1.0900     4.7990 ca         1 MOL      -0.184000
     13 C9           0.5880     1.3120     6.1770 ca         1 MOL      -0.096000
     14 C10         -0.5710     1.8800     6.6970 ca         1 MOL      -0.156000
     15 C11         -1.6030     2.2230     5.8320 ca         1 MOL       0.042400
     16 Cl1         -3.0380     2.9400     6.4600 cl         1 MOL      -0.100400
     17 C12         -1.4860     1.9980     4.4580 ca         1 MOL      -0.157000
     18 C13          1.0860     1.0340     1.9000 c3         1 MOL       0.186300
     19 C14          1.0130     1.2980     0.3780 c3         1 MOL       0.167300
     20 N4          -0.4120    -1.9050    -4.2620 nc         1 MOL      -0.224600
     21 C15         -1.4530    -2.6770    -4.3300 cd         1 MOL       0.002700
     22 C16         -2.3140    -2.9260    -5.5050 cd         1 MOL      -0.133000
     23 C17         -3.3500    -3.7700    -5.3540 cc         1 MOL      -0.072000
     24 C18         -3.6190    -4.4190    -4.0820 cc         1 MOL      -0.221000
     25 C19         -2.8240    -4.1790    -3.0280 cd         1 MOL       0.006700
     26 N5          -1.7700    -3.3200    -3.1760 n          1 MOL      -0.136200
     27 H1           2.0270    -1.7090    -2.9890 h1         1 MOL       0.084700
     28 H2           1.3150    -1.6560    -1.3780 h1         1 MOL       0.084700
     29 H3           0.9350     0.4420    -3.5970 hc         1 MOL       0.059700
     30 H4           2.0160     0.6110    -2.2290 hc         1 MOL       0.059700
     31 H5          -1.0290     0.3680    -2.1520 h1         1 MOL       0.037200
     32 H6          -0.1330     1.8580    -1.9210 h1         1 MOL       0.037200
     33 H7          -1.6230     1.8000     0.1740 h1         1 MOL       0.044700
     34 H8          -2.0960     0.1190    -0.1110 h1         1 MOL       0.044700
     35 H9          -2.3090     0.7530     2.2520 h1         1 MOL       0.045200
     36 H10         -1.1940    -0.5990     2.0410 h1         1 MOL       0.045200
     37 H11          1.6170     0.6290     4.4390 ha         1 MOL       0.136000
     38 H12          1.4040     1.0370     6.8390 ha         1 MOL       0.135000
     39 H13         -0.6610     2.0530     7.7650 ha         1 MOL       0.147000
     40 H14         -2.2970     2.3110     3.8070 ha         1 MOL       0.151000
     41 H15          1.8140     1.7380     2.3220 h1         1 MOL       0.045200
     42 H16          1.4510     0.0150     2.0790 h1         1 MOL       0.045200
     43 H17          2.0010     1.0750    -0.0400 h1         1 MOL       0.044700
     44 H18          0.8220     2.3670     0.2140 h1         1 MOL       0.044700
     45 H19         -2.0770    -2.4230    -6.4310 ha         1 MOL       0.164000
     46 H20         -4.0130    -3.9880    -6.1850 ha         1 MOL       0.145000
     47 H21         -4.4650    -5.0940    -4.0080 ha         1 MOL       0.155000
     48 H22         -2.9640    -4.6290    -2.0510 h4         1 MOL       0.177000
@<TRIPOS>BOND
     1     1     2 2   
     2     2     3 1   
     3     3     4 1   
     4     4     5 1   
     5     5     6 1   
     6     6     7 1   
     7     7     8 1   
     8     8     9 1   
     9     9    10 1   
    10    10    11 1   
    11    11    12 ar  
    12    12    13 ar  
    13    13    14 ar  
    14    14    15 ar  
    15    15    16 1   
    16    15    17 ar  
    17    10    18 1   
    18    18    19 1   
    19     3    20 1   
    20    20    21 2   
    21    21    22 1   
    22    22    23 2   
    23    23    24 1   
    24    24    25 2   
    25    25    26 1   
    26    26     2 1   
    27    19     7 1   
    28    26    21 1   
    29    17    11 ar  
    30     4    27 1   
    31     4    28 1   
    32     5    29 1   
    33     5    30 1   
    34     6    31 1   
    35     6    32 1   
    36     8    33 1   
    37     8    34 1   
    38     9    35 1   
    39     9    36 1   
    40    12    37 1   
    41    13    38 1   
    42    14    39 1   
    43    17    40 1   
    44    18    41 1   
    45    18    42 1   
    46    19    43 1   
    47    19    44 1   
    48    22    45 1   
    49    23    46 1   
    50    24    47 1   
    51    25    48 1   
@<TRIPOS>SUBSTRUCTURE
     1 MOL         1 TEMP              0 ****  ****    0 ROOT
