@<TRIPOS>MOLECULE
MOL
   11    11     1     0     0
SMALL
bcc


@<TRIPOS>ATOM
      1 C1          -1.8970    -0.0030    -0.8530 ca         1 MOL      -0.093000
      2 C2          -0.9540     0.6350    -1.6520 ca         1 MOL      -0.246300
      3 C3          -0.0530    -0.1480    -2.3550 ca         1 MOL       0.393200
      4 N1          -0.0360    -1.4980    -2.3100 nb         1 MOL      -0.665000
      5 C4          -0.9640    -2.0890    -1.5260 ca         1 MOL       0.393200
      6 C5          -1.9050    -1.3920    -0.7860 ca         1 MOL      -0.246300
      7 H1          -2.6200     0.5780    -0.2870 ha         1 MOL       0.137000
      8 H2          -0.9210     1.7160    -1.7260 ha         1 MOL       0.143000
      9 H3           0.7030     0.3020    -2.9930 h4         1 MOL       0.021100
     10 H4          -0.9290    -3.1750    -1.5070 h4         1 MOL       0.021100
     11 H5          -2.6270    -1.9190    -0.1730 ha         1 MOL       0.143000
@<TRIPOS>BOND
     1     1     2 ar  
     2     2     3 ar  
     3     3     4 ar  
     4     4     5 ar  
     5     5     6 ar  
     6     6     1 ar  
     7     1     7 1   
     8     2     8 1   
     9     3     9 1   
    10     5    10 1   
    11     6    11 1   
@<TRIPOS>SUBSTRUCTURE
     1 MOL         1 TEMP              0 ****  ****    0 ROOT
