
     RDKit          3D

 11 11  0  0  0  0  0  0  0  0999 V2000
   -1.8970   -0.0025   -0.8531 C   0  0  0  0  0  0  0  0  0  0  0  0
   -0.9538    0.6353   -1.6521 C   0  0  0  0  0  0  0  0  0  0  0  0
   -0.0527   -0.1483   -2.3552 C   0  0  0  0  0  0  0  0  0  0  0  0
   -0.0361   -1.4983   -2.3104 N   0  0  0  0  0  0  0  0  0  0  0  0
   -0.9637   -2.0894   -1.5261 C   0  0  0  0  0  0  0  0  0  0  0  0
   -1.9052   -1.3918   -0.7863 C   0  0  0  0  0  0  0  0  0  0  0  0
   -2.6196    0.5783   -0.2872 H   0  0  0  0  0  0  0  0  0  0  0  0
   -0.9210    1.7163   -1.7257 H   0  0  0  0  0  0  0  0  0  0  0  0
    0.7026    0.3025   -2.9925 H   0  0  0  0  0  0  0  0  0  0  0  0
   -0.9294   -3.1748   -1.5072 H   0  0  0  0  0  0  0  0  0  0  0  0
   -2.6272   -1.9189   -0.1730 H   0  0  0  0  0  0  0  0  0  0  0  0
  1  2  2  0
  2  3  1  0
  3  4  2  0
  4  5  1  0
  5  6  2  0
  6  1  1  0
  1  7  1  0
  2  8  1  0
  3  9  1  0
  5 10  1  0
  6 11  1  0
M  END
$$$$
