@<TRIPOS>MOLECULE
MOL
  101   105     1     0     0
SMALL
bcc


@<TRIPOS>ATOM
      1 C1          -1.8910     3.6790    -5.1550 c3         1 MOL       0.124700
      2 O1          -2.5420     2.4590    -4.7960 os         1 MOL      -0.427900
      3 C2          -1.6990     1.4150    -4.5770 c          1 MOL       0.633100
      4 O2          -0.4790     1.4500    -4.6880 o          1 MOL      -0.571000
      5 C3          -2.4870     0.2030    -4.1350 c3         1 MOL      -0.133400
      6 C4          -1.5830    -1.0320    -3.9350 c3         1 MOL      -0.119700
      7 C5          -0.9080    -0.8910    -2.5620 c          1 MOL       0.687100
      8 O3          -1.3770    -1.3530    -1.5220 o          1 MOL      -0.622100
      9 N1           0.2570    -0.1360    -2.5800 ns         1 MOL      -0.447300
     10 N2           1.0690    -0.0860    -1.4210 n3         1 MOL      -0.468600
     11 C6           2.3130    -0.8590    -1.6660 c3         1 MOL       0.203100
     12 C7           3.0840    -1.1910    -0.4080 ca         1 MOL      -0.100300
     13 C8           4.3330    -0.6100    -0.1530 ca         1 MOL      -0.117000
     14 C9           5.0320    -0.9140     1.0190 ca         1 MOL      -0.121000
     15 C10          4.5080    -1.8190     1.9480 ca         1 MOL      -0.052800
     16 C11          5.1950    -2.1350     3.2070 ce         1 MOL      -0.103200
     17 C12          6.4840    -2.4710     3.3890 cf         1 MOL      -0.105200
     18 C13          7.5240    -2.6480     2.3680 ca         1 MOL      -0.060800
     19 C14          8.7550    -2.0000     2.5350 ca         1 MOL      -0.117000
     20 C15          9.7770    -2.1680     1.5970 ca         1 MOL      -0.133000
     21 C16          9.5790    -2.9910     0.4900 ca         1 MOL      -0.128000
     22 C17          8.3630    -3.6520     0.3230 ca         1 MOL      -0.133000
     23 C18          7.3410    -3.4860     1.2620 ca         1 MOL      -0.117000
     24 C19          3.2560    -2.3920     1.6980 ca         1 MOL      -0.121000
     25 C20          2.5540    -2.0850     0.5300 ca         1 MOL      -0.117000
     26 C21          1.3760     1.3020    -1.0060 c3         1 MOL       0.126800
     27 C22          0.2640     2.1360    -0.3090 c3         1 MOL       0.110800
     28 O4           0.9020     3.3990     0.0160 oh         1 MOL      -0.602800
     29 C23         -0.9280     2.4330    -1.2370 c3         1 MOL      -0.063100
     30 C24         -1.9540     3.4130    -0.7080 ca         1 MOL      -0.090300
     31 C25         -1.7420     4.7950    -0.8130 ca         1 MOL      -0.122500
     32 C26         -2.6930     5.6970    -0.3370 ca         1 MOL      -0.132000
     33 C27         -3.8660     5.2290     0.2520 ca         1 MOL      -0.129000
     34 C28         -4.0870     3.8580     0.3640 ca         1 MOL      -0.132000
     35 C29         -3.1370     2.9540    -0.1140 ca         1 MOL      -0.122500
     36 C30         -0.1810     1.4580     1.0120 c          1 MOL       0.643100
     37 O5           0.0230     2.0190     2.0920 o          1 MOL      -0.637100
     38 N3          -0.8230     0.2480     0.9030 ns         1 MOL      -0.532900
     39 C31         -1.3450    -0.4660     2.0560 c3         1 MOL       0.121000
     40 C32         -2.6970     0.0650     2.4700 ca         1 MOL      -0.109300
     41 C33         -2.9790     1.2370     3.1570 ca         1 MOL      -0.095000
     42 C34         -4.3130     1.5500     3.4260 ca         1 MOL      -0.137000
     43 C35         -5.3460     0.7000     3.0050 ca         1 MOL      -0.128000
     44 C36         -5.0590    -0.4780     2.3140 ca         1 MOL      -0.124000
     45 C37         -3.7310    -0.7870     2.0630 ca         1 MOL      -0.086300
     46 C38         -3.1940    -1.9820     1.3460 c3         1 MOL      -0.070100
     47 C39         -1.7120    -1.9590     1.7700 c3         1 MOL       0.138100
     48 O6          -0.8820    -2.6010     0.8080 oh         1 MOL      -0.599800
     49 C40         -2.3270    -2.4030    -4.1250 c3         1 MOL      -0.037000
     50 C41         -2.6910    -2.5880    -5.6190 c3         1 MOL      -0.097433
     51 C42         -1.3990    -3.5800    -3.7480 c3         1 MOL      -0.097433
     52 C43         -3.6270    -2.5090    -3.3060 c3         1 MOL      -0.097433
     53 H1          -1.4010     3.5750    -6.1300 h1         1 MOL       0.056367
     54 H2          -2.6540     4.4610    -5.2300 h1         1 MOL       0.056367
     55 H3          -1.1680     3.9730    -4.3880 h1         1 MOL       0.056367
     56 H4          -3.0060     0.4580    -3.2030 hc         1 MOL       0.100200
     57 H5          -3.2370     0.0200    -4.9100 hc         1 MOL       0.100200
     58 H6          -0.7760    -1.0170    -4.6830 hc         1 MOL       0.079700
     59 H7           0.5410     0.3600    -3.4320 hn         1 MOL       0.323500
     60 H8           2.0610    -1.8180    -2.1400 h1         1 MOL       0.051700
     61 H9           2.9550    -0.3320    -2.3860 h1         1 MOL       0.051700
     62 H10          4.7700     0.0950    -0.8570 ha         1 MOL       0.149500
     63 H11          5.9900    -0.4320     1.2030 ha         1 MOL       0.138000
     64 H12          4.5550    -2.0790     4.0860 ha         1 MOL       0.129000
     65 H13          6.8270    -2.6460     4.4070 ha         1 MOL       0.126000
     66 H14          8.9230    -1.3530     3.3930 ha         1 MOL       0.137500
     67 H15         10.7260    -1.6560     1.7330 ha         1 MOL       0.131000
     68 H16         10.3730    -3.1210    -0.2400 ha         1 MOL       0.130000
     69 H17          8.2070    -4.2980    -0.5370 ha         1 MOL       0.131000
     70 H18          6.4010    -4.0140     1.1220 ha         1 MOL       0.137500
     71 H19          2.8140    -3.0860     2.4090 ha         1 MOL       0.138000
     72 H20          1.5850    -2.5470     0.3580 ha         1 MOL       0.149500
     73 H21          2.2070     1.2840    -0.2880 h1         1 MOL       0.075700
     74 H22          1.7680     1.8670    -1.8640 h1         1 MOL       0.075700
     75 H23          0.6200     3.5940     0.9360 ho         1 MOL       0.439000
     76 H24         -1.4630     1.5150    -1.4920 hc         1 MOL       0.064200
     77 H25         -0.5520     2.8430    -2.1830 hc         1 MOL       0.064200
     78 H26         -0.8260     5.1740    -1.2610 ha         1 MOL       0.142000
     79 H27         -2.5160     6.7660    -0.4220 ha         1 MOL       0.131000
     80 H28         -4.6050     5.9320     0.6280 ha         1 MOL       0.130000
     81 H29         -4.9960     3.4890     0.8300 ha         1 MOL       0.131000
     82 H30         -3.3280     1.8880    -0.0070 ha         1 MOL       0.142000
     83 H31         -0.8120    -0.2270     0.0040 hn         1 MOL       0.351500
     84 H32         -0.6230    -0.4050     2.8780 h1         1 MOL       0.086700
     85 H33         -2.1820     1.9050     3.4730 ha         1 MOL       0.159000
     86 H34         -4.5510     2.4670     3.9610 ha         1 MOL       0.131000
     87 H35         -6.3790     0.9630     3.2210 ha         1 MOL       0.128000
     88 H36         -5.8590    -1.1360     1.9900 ha         1 MOL       0.131000
     89 H37         -3.6750    -2.9110     1.6700 hc         1 MOL       0.063200
     90 H38         -3.3190    -1.8760     0.2640 hc         1 MOL       0.063200
     91 H39         -1.6140    -2.5200     2.7090 h1         1 MOL       0.076700
     92 H40         -1.0830    -2.2070    -0.0690 ho         1 MOL       0.426000
     93 H41         -3.4160    -1.8450    -5.9640 hc         1 MOL       0.043589
     94 H42         -1.8020    -2.5110    -6.2540 hc         1 MOL       0.043589
     95 H43         -3.1380    -3.5730    -5.7960 hc         1 MOL       0.043589
     96 H44         -1.1770    -3.6060    -2.6770 hc         1 MOL       0.043589
     97 H45         -0.4470    -3.5210    -4.2880 hc         1 MOL       0.043589
     98 H46         -1.8610    -4.5420    -3.9980 hc         1 MOL       0.043589
     99 H47         -3.4420    -2.4530    -2.2300 hc         1 MOL       0.043589
    100 H48         -4.3370    -1.7160    -3.5670 hc         1 MOL       0.043589
    101 H49         -4.1290    -3.4660    -3.4940 hc         1 MOL       0.043589
@<TRIPOS>BOND
     1     1     2 1   
     2     2     3 1   
     3     3     4 2   
     4     3     5 1   
     5     5     6 1   
     6     6     7 1   
     7     7     8 2   
     8     7     9 1   
     9     9    10 1   
    10    10    11 1   
    11    11    12 1   
    12    12    13 ar  
    13    13    14 ar  
    14    14    15 ar  
    15    15    16 1   
    16    16    17 2   
    17    17    18 1   
    18    18    19 ar  
    19    19    20 ar  
    20    20    21 ar  
    21    21    22 ar  
    22    22    23 ar  
    23    15    24 ar  
    24    24    25 ar  
    25    10    26 1   
    26    26    27 1   
    27    27    28 1   
    28    27    29 1   
    29    29    30 1   
    30    30    31 ar  
    31    31    32 ar  
    32    32    33 ar  
    33    33    34 ar  
    34    34    35 ar  
    35    27    36 1   
    36    36    37 2   
    37    36    38 1   
    38    38    39 1   
    39    39    40 1   
    40    40    41 ar  
    41    41    42 ar  
    42    42    43 ar  
    43    43    44 ar  
    44    44    45 ar  
    45    45    46 1   
    46    46    47 1   
    47    47    48 1   
    48     6    49 1   
    49    49    50 1   
    50    49    51 1   
    51    49    52 1   
    52    25    12 ar  
    53    35    30 ar  
    54    47    39 1   
    55    23    18 ar  
    56    45    40 ar  
    57     1    53 1   
    58     1    54 1   
    59     1    55 1   
    60     5    56 1   
    61     5    57 1   
    62     6    58 1   
    63     9    59 1   
    64    11    60 1   
    65    11    61 1   
    66    13    62 1   
    67    14    63 1   
    68    16    64 1   
    69    17    65 1   
    70    19    66 1   
    71    20    67 1   
    72    21    68 1   
    73    22    69 1   
    74    23    70 1   
    75    24    71 1   
    76    25    72 1   
    77    26    73 1   
    78    26    74 1   
    79    28    75 1   
    80    29    76 1   
    81    29    77 1   
    82    31    78 1   
    83    32    79 1   
    84    33    80 1   
    85    34    81 1   
    86    35    82 1   
    87    38    83 1   
    88    39    84 1   
    89    41    85 1   
    90    42    86 1   
    91    43    87 1   
    92    44    88 1   
    93    46    89 1   
    94    46    90 1   
    95    47    91 1   
    96    48    92 1   
    97    50    93 1   
    98    50    94 1   
    99    50    95 1   
   100    51    96 1   
   101    51    97 1   
   102    51    98 1   
   103    52    99 1   
   104    52   100 1   
   105    52   101 1   
@<TRIPOS>SUBSTRUCTURE
     1 MOL         1 TEMP              0 ****  ****    0 ROOT
