
     RDKit          3D

101105  0  0  0  0  0  0  0  0999 V2000
   -1.8912    3.6790   -5.1553 C   0  0  0  0  0  0  0  0  0  0  0  0
   -2.5419    2.4587   -4.7959 O   0  0  0  0  0  0  0  0  0  0  0  0
   -1.6988    1.4152   -4.5769 C   0  0  0  0  0  0  0  0  0  0  0  0
   -0.4790    1.4497   -4.6877 O   0  0  0  0  0  0  0  0  0  0  0  0
   -2.4874    0.2030   -4.1346 C   0  0  0  0  0  0  0  0  0  0  0  0
   -1.5825   -1.0318   -3.9352 C   0  0  1  0  0  0  0  0  0  0  0  0
   -0.9083   -0.8912   -2.5618 C   0  0  0  0  0  0  0  0  0  0  0  0
   -1.3769   -1.3526   -1.5215 O   0  0  0  0  0  0  0  0  0  0  0  0
    0.2567   -0.1361   -2.5802 N   0  0  0  0  0  0  0  0  0  0  0  0
    1.0689   -0.0865   -1.4214 N   0  0  0  0  0  0  0  0  0  0  0  0
    2.3133   -0.8585   -1.6663 C   0  0  0  0  0  0  0  0  0  0  0  0
    3.0838   -1.1906   -0.4082 C   0  0  0  0  0  0  0  0  0  0  0  0
    4.3332   -0.6098   -0.1531 C   0  0  0  0  0  0  0  0  0  0  0  0
    5.0325   -0.9139    1.0190 C   0  0  0  0  0  0  0  0  0  0  0  0
    4.5079   -1.8185    1.9480 C   0  0  0  0  0  0  0  0  0  0  0  0
    5.1953   -2.1350    3.2071 C   0  0  0  0  0  0  0  0  0  0  0  0
    6.4838   -2.4715    3.3888 C   0  0  0  0  0  0  0  0  0  0  0  0
    7.5242   -2.6480    2.3683 C   0  0  0  0  0  0  0  0  0  0  0  0
    8.7548   -2.0004    2.5348 C   0  0  0  0  0  0  0  0  0  0  0  0
    9.7765   -2.1679    1.5975 C   0  0  0  0  0  0  0  0  0  0  0  0
    9.5789   -2.9913    0.4902 C   0  0  0  0  0  0  0  0  0  0  0  0
    8.3625   -3.6517    0.3228 C   0  0  0  0  0  0  0  0  0  0  0  0
    7.3414   -3.4861    1.2618 C   0  0  0  0  0  0  0  0  0  0  0  0
    3.2564   -2.3917    1.6983 C   0  0  0  0  0  0  0  0  0  0  0  0
    2.5544   -2.0853    0.5301 C   0  0  0  0  0  0  0  0  0  0  0  0
    1.3764    1.3015   -1.0057 C   0  0  0  0  0  0  0  0  0  0  0  0
    0.2643    2.1363   -0.3095 C   0  0  1  0  0  0  0  0  0  0  0  0
    0.9016    3.3987    0.0162 O   0  0  0  0  0  0  0  0  0  0  0  0
   -0.9283    2.4332   -1.2368 C   0  0  0  0  0  0  0  0  0  0  0  0
   -1.9545    3.4130   -0.7077 C   0  0  0  0  0  0  0  0  0  0  0  0
   -1.7416    4.7946   -0.8127 C   0  0  0  0  0  0  0  0  0  0  0  0
   -2.6932    5.6975   -0.3367 C   0  0  0  0  0  0  0  0  0  0  0  0
   -3.8657    5.2295    0.2520 C   0  0  0  0  0  0  0  0  0  0  0  0
   -4.0867    3.8585    0.3641 C   0  0  0  0  0  0  0  0  0  0  0  0
   -3.1373    2.9541   -0.1142 C   0  0  0  0  0  0  0  0  0  0  0  0
   -0.1813    1.4577    1.0119 C   0  0  0  0  0  0  0  0  0  0  0  0
    0.0231    2.0191    2.0922 O   0  0  0  0  0  0  0  0  0  0  0  0
   -0.8227    0.2485    0.9032 N   0  0  0  0  0  0  0  0  0  0  0  0
   -1.3454   -0.4658    2.0557 C   0  0  0  0  0  0  0  0  0  0  0  0
   -2.6967    0.0647    2.4702 C   0  0  0  0  0  0  0  0  0  0  0  0
   -2.9792    1.2366    3.1572 C   0  0  0  0  0  0  0  0  0  0  0  0
   -4.3132    1.5501    3.4265 C   0  0  0  0  0  0  0  0  0  0  0  0
   -5.3463    0.7004    3.0049 C   0  0  0  0  0  0  0  0  0  0  0  0
   -5.0591   -0.4776    2.3137 C   0  0  0  0  0  0  0  0  0  0  0  0
   -3.7314   -0.7870    2.0632 C   0  0  0  0  0  0  0  0  0  0  0  0
   -3.1942   -1.9825    1.3459 C   0  0  0  0  0  0  0  0  0  0  0  0
   -1.7124   -1.9588    1.7701 C   0  0  1  0  0  0  0  0  0  0  0  0
   -0.8825   -2.6007    0.8076 O   0  0  0  0  0  0  0  0  0  0  0  0
   -2.3269   -2.4031   -4.1251 C   0  0  0  0  0  0  0  0  0  0  0  0
   -2.6910   -2.5876   -5.6187 C   0  0  0  0  0  0  0  0  0  0  0  0
   -1.3988   -3.5801   -3.7480 C   0  0  0  0  0  0  0  0  0  0  0  0
   -3.6268   -2.5086   -3.3060 C   0  0  0  0  0  0  0  0  0  0  0  0
   -1.4011    3.5745   -6.1295 H   0  0  0  0  0  0  0  0  0  0  0  0
   -2.6536    4.4613   -5.2297 H   0  0  0  0  0  0  0  0  0  0  0  0
   -1.1679    3.9732   -4.3885 H   0  0  0  0  0  0  0  0  0  0  0  0
   -3.0063    0.4581   -3.2027 H   0  0  0  0  0  0  0  0  0  0  0  0
   -3.2370    0.0199   -4.9098 H   0  0  0  0  0  0  0  0  0  0  0  0
   -0.7758   -1.0166   -4.6834 H   0  0  0  0  0  0  0  0  0  0  0  0
    0.5406    0.3604   -3.4317 H   0  0  0  0  0  0  0  0  0  0  0  0
    2.0611   -1.8182   -2.1401 H   0  0  0  0  0  0  0  0  0  0  0  0
    2.9552   -0.3317   -2.3857 H   0  0  0  0  0  0  0  0  0  0  0  0
    4.7698    0.0947   -0.8568 H   0  0  0  0  0  0  0  0  0  0  0  0
    5.9905   -0.4320    1.2028 H   0  0  0  0  0  0  0  0  0  0  0  0
    4.5550   -2.0791    4.0862 H   0  0  0  0  0  0  0  0  0  0  0  0
    6.8269   -2.6462    4.4074 H   0  0  0  0  0  0  0  0  0  0  0  0
    8.9229   -1.3534    3.3927 H   0  0  0  0  0  0  0  0  0  0  0  0
   10.7255   -1.6557    1.7327 H   0  0  0  0  0  0  0  0  0  0  0  0
   10.3735   -3.1210   -0.2402 H   0  0  0  0  0  0  0  0  0  0  0  0
    8.2068   -4.2979   -0.5368 H   0  0  0  0  0  0  0  0  0  0  0  0
    6.4009   -4.0143    1.1217 H   0  0  0  0  0  0  0  0  0  0  0  0
    2.8137   -3.0859    2.4091 H   0  0  0  0  0  0  0  0  0  0  0  0
    1.5848   -2.5472    0.3585 H   0  0  0  0  0  0  0  0  0  0  0  0
    2.2074    1.2839   -0.2883 H   0  0  0  0  0  0  0  0  0  0  0  0
    1.7685    1.8673   -1.8642 H   0  0  0  0  0  0  0  0  0  0  0  0
    0.6202    3.5942    0.9365 H   0  0  0  0  0  0  0  0  0  0  0  0
   -1.4630    1.5153   -1.4921 H   0  0  0  0  0  0  0  0  0  0  0  0
   -0.5516    2.8434   -2.1828 H   0  0  0  0  0  0  0  0  0  0  0  0
   -0.8258    5.1741   -1.2612 H   0  0  0  0  0  0  0  0  0  0  0  0
   -2.5162    6.7661   -0.4216 H   0  0  0  0  0  0  0  0  0  0  0  0
   -4.6047    5.9321    0.6280 H   0  0  0  0  0  0  0  0  0  0  0  0
   -4.9962    3.4885    0.8303 H   0  0  0  0  0  0  0  0  0  0  0  0
   -3.3283    1.8884   -0.0074 H   0  0  0  0  0  0  0  0  0  0  0  0
   -0.8119   -0.2274    0.0037 H   0  0  0  0  0  0  0  0  0  0  0  0
   -0.6227   -0.4051    2.8778 H   0  0  0  0  0  0  0  0  0  0  0  0
   -2.1821    1.9045    3.4730 H   0  0  0  0  0  0  0  0  0  0  0  0
   -4.5508    2.4671    3.9612 H   0  0  0  0  0  0  0  0  0  0  0  0
   -6.3790    0.9634    3.2207 H   0  0  0  0  0  0  0  0  0  0  0  0
   -5.8594   -1.1361    1.9896 H   0  0  0  0  0  0  0  0  0  0  0  0
   -3.6745   -2.9114    1.6699 H   0  0  0  0  0  0  0  0  0  0  0  0
   -3.3192   -1.8763    0.2639 H   0  0  0  0  0  0  0  0  0  0  0  0
   -1.6137   -2.5203    2.7091 H   0  0  0  0  0  0  0  0  0  0  0  0
   -1.0835   -2.2071   -0.0694 H   0  0  0  0  0  0  0  0  0  0  0  0
   -3.4162   -1.8448   -5.9637 H   0  0  0  0  0  0  0  0  0  0  0  0
   -1.8023   -2.5108   -6.2542 H   0  0  0  0  0  0  0  0  0  0  0  0
   -3.1381   -3.5730   -5.7964 H   0  0  0  0  0  0  0  0  0  0  0  0
   -1.1770   -3.6059   -2.6767 H   0  0  0  0  0  0  0  0  0  0  0  0
   -0.4472   -3.5211   -4.2884 H   0  0  0  0  0  0  0  0  0  0  0  0
   -1.8610   -4.5424   -3.9981 H   0  0  0  0  0  0  0  0  0  0  0  0
   -3.4420   -2.4530   -2.2297 H   0  0  0  0  0  0  0  0  0  0  0  0
   -4.3373   -1.7164   -3.5665 H   0  0  0  0  0  0  0  0  0  0  0  0
   -4.1288   -3.4658   -3.4935 H   0  0  0  0  0  0  0  0  0  0  0  0
  1  2  1  0
  2  3  1  0
  3  4  2  0
  3  5  1  0
  5  6  1  0
  6  7  1  0
  7  8  2  0
  7  9  1  0
  9 10  1  0
 10 11  1  0
 11 12  1  0
 12 13  2  0
 13 14  1  0
 14 15  2  0
 15 16  1  0
 16 17  2  0
 17 18  1  0
 18 19  2  0
 19 20  1  0
 20 21  2  0
 21 22  1  0
 22 23  2  0
 15 24  1  0
 24 25  2  0
 10 26  1  0
 26 27  1  0
 27 28  1  1
 27 29  1  0
 29 30  1  0
 30 31  2  0
 31 32  1  0
 32 33  2  0
 33 34  1  0
 34 35  2  0
 27 36  1  0
 36 37  2  0
 36 38  1  0
 38 39  1  0
 39 40  1  0
 40 41  2  0
 41 42  1  0
 42 43  2  0
 43 44  1  0
 44 45  2  0
 45 46  1  0
 46 47  1  0
 47 48  1  0
  6 49  1  0
 49 50  1  0
 49 51  1  0
 49 52  1  0
 25 12  1  0
 35 30  1  0
 47 39  1  0
 23 18  1  0
 45 40  1  0
  1 53  1  0
  1 54  1  0
  1 55  1  0
  5 56  1  0
  5 57  1  0
  6 58  1  6
  9 59  1  0
 11 60  1  0
 11 61  1  0
 13 62  1  0
 14 63  1  0
 16 64  1  0
 17 65  1  0
 19 66  1  0
 20 67  1  0
 21 68  1  0
 22 69  1  0
 23 70  1  0
 24 71  1  0
 25 72  1  0
 26 73  1  0
 26 74  1  0
 28 75  1  0
 29 76  1  0
 29 77  1  0
 31 78  1  0
 32 79  1  0
 33 80  1  0
 34 81  1  0
 35 82  1  0
 38 83  1  0
 39 84  1  0
 41 85  1  0
 42 86  1  0
 43 87  1  0
 44 88  1  0
 46 89  1  0
 46 90  1  0
 47 91  1  1
 48 92  1  0
 50 93  1  0
 50 94  1  0
 50 95  1  0
 51 96  1  0
 51 97  1  0
 51 98  1  0
 52 99  1  0
 52100  1  0
 52101  1  0
M  END
$$$$
