@<TRIPOS>MOLECULE
MOL
   69    71     1     0     0
SMALL
bcc


@<TRIPOS>ATOM
      1 C1          -3.6790    -2.4960     0.9000 c3         1 MOL      -0.098100
      2 C2          -3.6430    -0.9830     1.0430 c3         1 MOL      -0.079400
      3 C3          -3.5290    -0.2480    -0.2940 c3         1 MOL      -0.076400
      4 C4          -2.2130    -0.5270    -1.0170 c3         1 MOL      -0.152400
      5 C5          -2.0170     0.3860    -2.2120 c          1 MOL       0.694100
      6 O1          -2.9370     0.9230    -2.8090 o          1 MOL      -0.578100
      7 N1          -0.6760     0.5700    -2.5620 ns         1 MOL      -0.684300
      8 S1          -0.1210     1.4580    -3.8420 sy         1 MOL       1.502900
      9 O2          -0.6080     0.8270    -5.0520 o          1 MOL      -0.649800
     10 O3           1.3070     1.6200    -3.6440 o          1 MOL      -0.649800
     11 C6          -0.8620     3.0760    -3.6990 ca         1 MOL      -0.343500
     12 C7          -1.5600     3.5540    -4.8230 ca         1 MOL      -0.020000
     13 C8          -2.1580     4.8120    -4.8020 ca         1 MOL      -0.148000
     14 C9          -2.0630     5.6030    -3.6630 ca         1 MOL      -0.066000
     15 C10         -1.3730     5.1330    -2.5430 ca         1 MOL      -0.150000
     16 C11         -0.7590     3.8640    -2.5340 cp         1 MOL       0.077000
     17 C12         -0.0800     3.4390    -1.3060 cp         1 MOL      -0.047000
     18 C13          1.3180     3.4480    -1.2110 ca         1 MOL      -0.119000
     19 C14          1.9620     2.9530    -0.0750 ca         1 MOL      -0.092000
     20 C15          1.2170     2.4330     0.9910 ca         1 MOL      -0.153300
     21 C16          1.9020     1.7340     2.1380 c3         1 MOL       0.084600
     22 N2           1.4450     0.3530     2.2990 na         1 MOL      -0.166900
     23 C17          0.8920    -0.2030     3.4360 cc         1 MOL       0.454800
     24 C18          0.7360     0.4770     4.7590 c3         1 MOL      -0.112700
     25 C19          1.8650     0.1360     5.7320 c3         1 MOL      -0.081400
     26 C20          3.2030     0.7560     5.3550 c3         1 MOL      -0.100100
     27 N3           0.4820    -1.4320     3.1950 nd         1 MOL      -0.676000
     28 C21          0.7690    -1.6890     1.8810 cd         1 MOL       0.404600
     29 C22          0.4050    -3.0060     1.2860 c3         1 MOL      -0.118700
     30 C23          1.5780    -3.9730     1.2600 c3         1 MOL      -0.089100
     31 C24          1.4110    -0.6100     1.3010 cc         1 MOL      -0.292200
     32 C25          1.8590    -0.4810    -0.0500 c          1 MOL       0.704700
     33 O4           1.2440    -0.7800    -1.0640 o          1 MOL      -0.579000
     34 O5           3.0950     0.0500    -0.1180 oh         1 MOL      -0.605100
     35 C26         -0.1750     2.5270     0.9340 ca         1 MOL       0.136900
     36 F1          -0.9170     2.0940     1.9620 f          1 MOL      -0.135900
     37 C27         -0.8220     3.0190    -0.1940 ca         1 MOL      -0.149000
     38 H1          -4.4950    -2.8080     0.2400 hc         1 MOL       0.035033
     39 H2          -2.7400    -2.8840     0.4960 hc         1 MOL       0.035033
     40 H3          -3.8370    -2.9620     1.8780 hc         1 MOL       0.035033
     41 H4          -4.5640    -0.6560     1.5430 hc         1 MOL       0.041700
     42 H5          -2.8100    -0.6980     1.6970 hc         1 MOL       0.041700
     43 H6          -3.6180     0.8290    -0.1040 hc         1 MOL       0.058200
     44 H7          -4.3730    -0.5180    -0.9400 hc         1 MOL       0.058200
     45 H8          -1.3840    -0.3760    -0.3190 hc         1 MOL       0.080200
     46 H9          -2.1730    -1.5600    -1.3780 hc         1 MOL       0.080200
     47 H10          0.0690     0.1250    -2.0180 hn         1 MOL       0.354500
     48 H11         -1.6500     2.9460    -5.7210 ha         1 MOL       0.175000
     49 H12         -2.7000     5.1710    -5.6740 ha         1 MOL       0.146000
     50 H13         -2.5290     6.5850    -3.6420 ha         1 MOL       0.140000
     51 H14         -1.3170     5.7720    -1.6620 ha         1 MOL       0.143000
     52 H15          1.9200     3.8030    -2.0480 ha         1 MOL       0.183000
     53 H16          3.0510     2.9280    -0.0570 ha         1 MOL       0.154000
     54 H17          1.7220     2.2980     3.0550 h1         1 MOL       0.084700
     55 H18          2.9880     1.6830     1.9970 h1         1 MOL       0.084700
     56 H19          0.6250     1.5610     4.6590 hc         1 MOL       0.070700
     57 H20         -0.2070     0.1280     5.1990 hc         1 MOL       0.070700
     58 H21          1.5860     0.5010     6.7280 hc         1 MOL       0.055700
     59 H22          1.9820    -0.9510     5.8150 hc         1 MOL       0.055700
     60 H23          3.5820     0.3500     4.4130 hc         1 MOL       0.035700
     61 H24          3.9460     0.5440     6.1300 hc         1 MOL       0.035700
     62 H25          3.1190     1.8430     5.2570 hc         1 MOL       0.035700
     63 H26          0.0230    -2.8630     0.2690 hc         1 MOL       0.064700
     64 H27         -0.4130    -3.4500     1.8660 hc         1 MOL       0.064700
     65 H28          2.4020    -3.5820     0.6540 hc         1 MOL       0.041033
     66 H29          1.9620    -4.1550     2.2690 hc         1 MOL       0.041033
     67 H30          1.2690    -4.9330     0.8340 hc         1 MOL       0.041033
     68 H31          3.2840     0.0780    -1.0810 ho         1 MOL       0.455000
     69 H32         -1.9090     3.0370    -0.2110 ha         1 MOL       0.160000
@<TRIPOS>BOND
     1     1     2 1   
     2     2     3 1   
     3     3     4 1   
     4     4     5 1   
     5     5     6 2   
     6     5     7 1   
     7     7     8 1   
     8     8     9 2   
     9     8    10 2   
    10     8    11 1   
    11    11    12 ar  
    12    12    13 ar  
    13    13    14 ar  
    14    14    15 ar  
    15    15    16 ar  
    16    16    17 1   
    17    17    18 ar  
    18    18    19 ar  
    19    19    20 ar  
    20    20    21 1   
    21    21    22 1   
    22    22    23 1   
    23    23    24 1   
    24    24    25 1   
    25    25    26 1   
    26    23    27 2   
    27    27    28 1   
    28    28    29 1   
    29    29    30 1   
    30    28    31 2   
    31    31    32 1   
    32    32    33 2   
    33    32    34 1   
    34    20    35 ar  
    35    35    36 1   
    36    35    37 ar  
    37    16    11 ar  
    38    37    17 ar  
    39    31    22 1   
    40     1    38 1   
    41     1    39 1   
    42     1    40 1   
    43     2    41 1   
    44     2    42 1   
    45     3    43 1   
    46     3    44 1   
    47     4    45 1   
    48     4    46 1   
    49     7    47 1   
    50    12    48 1   
    51    13    49 1   
    52    14    50 1   
    53    15    51 1   
    54    18    52 1   
    55    19    53 1   
    56    21    54 1   
    57    21    55 1   
    58    24    56 1   
    59    24    57 1   
    60    25    58 1   
    61    25    59 1   
    62    26    60 1   
    63    26    61 1   
    64    26    62 1   
    65    29    63 1   
    66    29    64 1   
    67    30    65 1   
    68    30    66 1   
    69    30    67 1   
    70    34    68 1   
    71    37    69 1   
@<TRIPOS>SUBSTRUCTURE
     1 MOL         1 TEMP              0 ****  ****    0 ROOT
