
     RDKit          3D

 69 71  0  0  0  0  0  0  0  0999 V2000
   -3.6793   -2.4961    0.9002 C   0  0  0  0  0  0  0  0  0  0  0  0
   -3.6434   -0.9826    1.0434 C   0  0  0  0  0  0  0  0  0  0  0  0
   -3.5289   -0.2482   -0.2938 C   0  0  0  0  0  0  0  0  0  0  0  0
   -2.2135   -0.5267   -1.0169 C   0  0  0  0  0  0  0  0  0  0  0  0
   -2.0165    0.3858   -2.2115 C   0  0  0  0  0  0  0  0  0  0  0  0
   -2.9370    0.9228   -2.8095 O   0  0  0  0  0  0  0  0  0  0  0  0
   -0.6763    0.5695   -2.5616 N   0  0  0  0  0  0  0  0  0  0  0  0
   -0.1208    1.4575   -3.8423 S   0  0  0  0  0  0  0  0  0  0  0  0
   -0.6077    0.8270   -5.0518 O   0  0  0  0  0  0  0  0  0  0  0  0
    1.3070    1.6197   -3.6444 O   0  0  0  0  0  0  0  0  0  0  0  0
   -0.8620    3.0761   -3.6991 C   0  0  0  0  0  0  0  0  0  0  0  0
   -1.5603    3.5537   -4.8226 C   0  0  0  0  0  0  0  0  0  0  0  0
   -2.1578    4.8125   -4.8020 C   0  0  0  0  0  0  0  0  0  0  0  0
   -2.0626    5.6034   -3.6633 C   0  0  0  0  0  0  0  0  0  0  0  0
   -1.3734    5.1335   -2.5433 C   0  0  0  0  0  0  0  0  0  0  0  0
   -0.7595    3.8640   -2.5336 C   0  0  0  0  0  0  0  0  0  0  0  0
   -0.0797    3.4395   -1.3057 C   0  0  0  0  0  0  0  0  0  0  0  0
    1.3184    3.4481   -1.2111 C   0  0  0  0  0  0  0  0  0  0  0  0
    1.9624    2.9531   -0.0749 C   0  0  0  0  0  0  0  0  0  0  0  0
    1.2168    2.4330    0.9905 C   0  0  0  0  0  0  0  0  0  0  0  0
    1.9020    1.7344    2.1382 C   0  0  0  0  0  0  0  0  0  0  0  0
    1.4446    0.3535    2.2986 N   0  0  0  0  0  0  0  0  0  0  0  0
    0.8916   -0.2030    3.4355 C   0  0  0  0  0  0  0  0  0  0  0  0
    0.7359    0.4775    4.7590 C   0  0  0  0  0  0  0  0  0  0  0  0
    1.8653    0.1361    5.7325 C   0  0  0  0  0  0  0  0  0  0  0  0
    3.2028    0.7565    5.3554 C   0  0  0  0  0  0  0  0  0  0  0  0
    0.4819   -1.4317    3.1952 N   0  0  0  0  0  0  0  0  0  0  0  0
    0.7692   -1.6893    1.8812 C   0  0  0  0  0  0  0  0  0  0  0  0
    0.4049   -3.0060    1.2862 C   0  0  0  0  0  0  0  0  0  0  0  0
    1.5776   -3.9729    1.2600 C   0  0  0  0  0  0  0  0  0  0  0  0
    1.4114   -0.6097    1.3010 C   0  0  0  0  0  0  0  0  0  0  0  0
    1.8588   -0.4806   -0.0504 C   0  0  0  0  0  0  0  0  0  0  0  0
    1.2443   -0.7802   -1.0641 O   0  0  0  0  0  0  0  0  0  0  0  0
    3.0951    0.0499   -0.1177 O   0  0  0  0  0  0  0  0  0  0  0  0
   -0.1753    2.5273    0.9345 C   0  0  0  0  0  0  0  0  0  0  0  0
   -0.9171    2.0940    1.9625 F   0  0  0  0  0  0  0  0  0  0  0  0
   -0.8219    3.0188   -0.1941 C   0  0  0  0  0  0  0  0  0  0  0  0
   -4.4945   -2.8085    0.2400 H   0  0  0  0  0  0  0  0  0  0  0  0
   -2.7398   -2.8836    0.4961 H   0  0  0  0  0  0  0  0  0  0  0  0
   -3.8371   -2.9623    1.8780 H   0  0  0  0  0  0  0  0  0  0  0  0
   -4.5635   -0.6565    1.5427 H   0  0  0  0  0  0  0  0  0  0  0  0
   -2.8104   -0.6982    1.6972 H   0  0  0  0  0  0  0  0  0  0  0  0
   -3.6179    0.8289   -0.1039 H   0  0  0  0  0  0  0  0  0  0  0  0
   -4.3731   -0.5184   -0.9401 H   0  0  0  0  0  0  0  0  0  0  0  0
   -1.3837   -0.3755   -0.3187 H   0  0  0  0  0  0  0  0  0  0  0  0
   -2.1729   -1.5596   -1.3783 H   0  0  0  0  0  0  0  0  0  0  0  0
    0.0688    0.1252   -2.0182 H   0  0  0  0  0  0  0  0  0  0  0  0
   -1.6499    2.9457   -5.7214 H   0  0  0  0  0  0  0  0  0  0  0  0
   -2.6997    5.1712   -5.6737 H   0  0  0  0  0  0  0  0  0  0  0  0
   -2.5291    6.5853   -3.6424 H   0  0  0  0  0  0  0  0  0  0  0  0
   -1.3170    5.7720   -1.6623 H   0  0  0  0  0  0  0  0  0  0  0  0
    1.9198    3.8033   -2.0481 H   0  0  0  0  0  0  0  0  0  0  0  0
    3.0507    2.9279   -0.0571 H   0  0  0  0  0  0  0  0  0  0  0  0
    1.7220    2.2982    3.0553 H   0  0  0  0  0  0  0  0  0  0  0  0
    2.9876    1.6831    1.9971 H   0  0  0  0  0  0  0  0  0  0  0  0
    0.6246    1.5608    4.6587 H   0  0  0  0  0  0  0  0  0  0  0  0
   -0.2074    0.1276    5.1987 H   0  0  0  0  0  0  0  0  0  0  0  0
    1.5862    0.5010    6.7284 H   0  0  0  0  0  0  0  0  0  0  0  0
    1.9824   -0.9513    5.8146 H   0  0  0  0  0  0  0  0  0  0  0  0
    3.5820    0.3505    4.4130 H   0  0  0  0  0  0  0  0  0  0  0  0
    3.9463    0.5442    6.1305 H   0  0  0  0  0  0  0  0  0  0  0  0
    3.1186    1.8433    5.2574 H   0  0  0  0  0  0  0  0  0  0  0  0
    0.0230   -2.8633    0.2691 H   0  0  0  0  0  0  0  0  0  0  0  0
   -0.4131   -3.4504    1.8658 H   0  0  0  0  0  0  0  0  0  0  0  0
    2.4016   -3.5818    0.6536 H   0  0  0  0  0  0  0  0  0  0  0  0
    1.9615   -4.1551    2.2695 H   0  0  0  0  0  0  0  0  0  0  0  0
    1.2689   -4.9327    0.8342 H   0  0  0  0  0  0  0  0  0  0  0  0
    3.2835    0.0782   -1.0806 H   0  0  0  0  0  0  0  0  0  0  0  0
   -1.9092    3.0365   -0.2115 H   0  0  0  0  0  0  0  0  0  0  0  0
  1  2  1  0
  2  3  1  0
  3  4  1  0
  4  5  1  0
  5  6  2  0
  5  7  1  0
  7  8  1  0
  8  9  2  0
  8 10  2  0
  8 11  1  0
 11 12  2  0
 12 13  1  0
 13 14  2  0
 14 15  1  0
 15 16  2  0
 16 17  1  0
 17 18  2  0
 18 19  1  0
 19 20  2  0
 20 21  1  0
 21 22  1  0
 22 23  1  0
 23 24  1  0
 24 25  1  0
 25 26  1  0
 23 27  2  0
 27 28  1  0
 28 29  1  0
 29 30  1  0
 28 31  2  0
 31 32  1  0
 32 33  2  0
 32 34  1  0
 20 35  1  0
 35 36  1  0
 35 37  2  0
 16 11  1  0
 37 17  1  0
 31 22  1  0
  1 38  1  0
  1 39  1  0
  1 40  1  0
  2 41  1  0
  2 42  1  0
  3 43  1  0
  3 44  1  0
  4 45  1  0
  4 46  1  0
  7 47  1  0
 12 48  1  0
 13 49  1  0
 14 50  1  0
 15 51  1  0
 18 52  1  0
 19 53  1  0
 21 54  1  0
 21 55  1  0
 24 56  1  0
 24 57  1  0
 25 58  1  0
 25 59  1  0
 26 60  1  0
 26 61  1  0
 26 62  1  0
 29 63  1  0
 29 64  1  0
 30 65  1  0
 30 66  1  0
 30 67  1  0
 34 68  1  0
 37 69  1  0
M  END
$$$$
