@<TRIPOS>MOLECULE
MOL
   66    68     1     0     0
SMALL
bcc


@<TRIPOS>ATOM
      1 O1          -1.1780     1.7410    -2.7320 oh         1 MOL      -0.613800
      2 C1          -0.4450     2.9740    -2.7370 c3         1 MOL       0.144400
      3 C2           0.5420     2.9760    -1.5670 c3         1 MOL       0.056100
      4 O2           1.4800     1.9150    -1.8060 os         1 MOL      -0.452600
      5 C3           2.3220     1.6370    -0.6780 c3         1 MOL       0.301900
      6 O3           1.8190     0.4980     0.0290 os         1 MOL      -0.458600
      7 C4           1.9210    -0.7060    -0.7520 c3         1 MOL       0.142400
      8 C5           0.6160    -1.4950    -0.6000 c3         1 MOL       0.135100
      9 O4          -0.4590    -0.6460    -1.0640 os         1 MOL      -0.447600
     10 C6          -1.7470    -1.2410    -0.8980 c3         1 MOL       0.333900
     11 O5          -1.9780    -1.5110     0.4810 os         1 MOL      -0.465600
     12 C7          -2.7730    -0.5600     1.1940 c3         1 MOL       0.277600
     13 C8          -2.3690     0.9160     0.9590 c3         1 MOL       0.124400
     14 O6          -0.9660     1.1310     1.1750 oh         1 MOL      -0.589800
     15 O7          -2.5660    -0.8520     2.6020 os         1 MOL      -0.384600
     16 C9          -3.6440    -1.7020     3.0600 c3         1 MOL       0.094100
     17 C10         -3.0420    -2.9360     3.7270 c3         1 MOL       0.118400
     18 O8          -2.2220    -2.5390     4.8260 oh         1 MOL      -0.597800
     19 C11         -4.4960    -2.0460     1.8480 c3         1 MOL       0.090100
     20 O9          -5.8680    -2.2270     2.1710 oh         1 MOL      -0.584800
     21 C12         -4.2780    -0.8220     0.9730 c3         1 MOL       0.074100
     22 O10         -4.6970    -1.0690    -0.3660 oh         1 MOL      -0.590800
     23 C13         -1.8470    -2.5580    -1.6860 c3         1 MOL       0.131100
     24 O11         -3.1290    -3.1790    -1.4750 oh         1 MOL      -0.602800
     25 C14         -0.7250    -3.5070    -1.2550 c3         1 MOL       0.066100
     26 O12         -0.7710    -4.6820    -2.0830 oh         1 MOL      -0.607800
     27 C15          0.6360    -2.8100    -1.3930 c3         1 MOL       0.089100
     28 O13          1.6700    -3.6780    -0.9280 oh         1 MOL      -0.589800
     29 C16          2.4810     2.8260     0.3110 c3         1 MOL       0.140100
     30 O14          1.3930     2.9330     1.2420 oh         1 MOL      -0.592800
     31 C17          2.5520     4.1300    -0.4850 c3         1 MOL       0.112100
     32 O15          3.7600     4.1560    -1.2640 oh         1 MOL      -0.606800
     33 C18          1.3150     4.2970    -1.4050 c3         1 MOL       0.093100
     34 O16          1.7660     4.7910    -2.6800 oh         1 MOL      -0.600800
     35 H1          -0.5330     1.0540    -2.4660 ho         1 MOL       0.423000
     36 H2           0.0700     3.0320    -3.7000 h1         1 MOL       0.058200
     37 H3          -1.1620     3.7950    -2.6580 h1         1 MOL       0.058200
     38 H4          -0.0290     2.7360    -0.6650 h1         1 MOL       0.106700
     39 H5           3.3130     1.3940    -1.0810 h2         1 MOL       0.083700
     40 H6           2.0930    -0.4820    -1.8120 h1         1 MOL       0.064700
     41 H7           2.7760    -1.2770    -0.3750 h1         1 MOL       0.064700
     42 H8           0.4780    -1.6900     0.4720 h1         1 MOL       0.092700
     43 H9          -2.4900    -0.5490    -1.3030 h2         1 MOL       0.121700
     44 H10         -2.8970     1.5690     1.6610 h1         1 MOL       0.073700
     45 H11         -2.6020     1.2520    -0.0560 h1         1 MOL       0.073700
     46 H12         -0.4980     0.5080     0.5840 ho         1 MOL       0.422000
     47 H13         -4.2080    -1.1250     3.8020 h1         1 MOL       0.110700
     48 H14         -2.4020    -3.4880     3.0310 h1         1 MOL       0.052700
     49 H15         -3.8210    -3.6070     4.1010 h1         1 MOL       0.052700
     50 H16         -1.6880    -1.7880     4.4980 ho         1 MOL       0.418000
     51 H17         -4.1510    -2.9570     1.3450 h1         1 MOL       0.059700
     52 H18         -6.3660    -2.1570     1.3340 ho         1 MOL       0.411000
     53 H19         -4.8800     0.0120     1.3530 h1         1 MOL       0.102700
     54 H20         -4.2960    -1.9150    -0.6680 ho         1 MOL       0.432000
     55 H21         -1.7590    -2.3550    -2.7610 h1         1 MOL       0.067700
     56 H22         -3.0500    -4.0560    -1.9050 ho         1 MOL       0.431000
     57 H23         -0.8880    -3.8570    -0.2280 h1         1 MOL       0.085700
     58 H24         -0.2820    -5.3760    -1.6010 ho         1 MOL       0.414000
     59 H25          0.8330    -2.6050    -2.4530 h1         1 MOL       0.058700
     60 H26          1.8060    -4.3530    -1.6180 ho         1 MOL       0.409000
     61 H27          3.3870     2.6670     0.9060 h1         1 MOL       0.069700
     62 H28          1.0300     2.0300     1.3780 ho         1 MOL       0.441000
     63 H29          2.5950     4.9820     0.2030 h1         1 MOL       0.069700
     64 H30          3.7250     5.0010    -1.7560 ho         1 MOL       0.424000
     65 H31          0.6370     5.0500    -0.9900 h1         1 MOL       0.091700
     66 H32          2.3130     4.0730    -3.0590 ho         1 MOL       0.418000
@<TRIPOS>BOND
     1     1     2 1   
     2     2     3 1   
     3     3     4 1   
     4     4     5 1   
     5     5     6 1   
     6     6     7 1   
     7     7     8 1   
     8     8     9 1   
     9     9    10 1   
    10    10    11 1   
    11    12    11 1   
    12    12    13 1   
    13    13    14 1   
    14    12    15 1   
    15    15    16 1   
    16    16    17 1   
    17    17    18 1   
    18    16    19 1   
    19    19    20 1   
    20    19    21 1   
    21    21    22 1   
    22    10    23 1   
    23    23    24 1   
    24    23    25 1   
    25    25    26 1   
    26    25    27 1   
    27    27    28 1   
    28     5    29 1   
    29    29    30 1   
    30    29    31 1   
    31    31    32 1   
    32    31    33 1   
    33    33    34 1   
    34    33     3 1   
    35    27     8 1   
    36    21    12 1   
    37     1    35 1   
    38     2    36 1   
    39     2    37 1   
    40     3    38 1   
    41     5    39 1   
    42     7    40 1   
    43     7    41 1   
    44     8    42 1   
    45    10    43 1   
    46    13    44 1   
    47    13    45 1   
    48    14    46 1   
    49    16    47 1   
    50    17    48 1   
    51    17    49 1   
    52    18    50 1   
    53    19    51 1   
    54    20    52 1   
    55    21    53 1   
    56    22    54 1   
    57    23    55 1   
    58    24    56 1   
    59    25    57 1   
    60    26    58 1   
    61    27    59 1   
    62    28    60 1   
    63    29    61 1   
    64    30    62 1   
    65    31    63 1   
    66    32    64 1   
    67    33    65 1   
    68    34    66 1   
@<TRIPOS>SUBSTRUCTURE
     1 MOL         1 TEMP              0 ****  ****    0 ROOT
