
     RDKit          3D

 66 68  0  0  0  0  0  0  0  0999 V2000
   -1.1783    1.7406   -2.7316 O   0  0  0  0  0  0  0  0  0  0  0  0
   -0.4446    2.9737   -2.7367 C   0  0  0  0  0  0  0  0  0  0  0  0
    0.5421    2.9756   -1.5665 C   0  0  1  0  0  0  0  0  0  0  0  0
    1.4802    1.9146   -1.8060 O   0  0  0  0  0  0  0  0  0  0  0  0
    2.3221    1.6366   -0.6776 C   0  0  0  0  0  0  0  0  0  0  0  0
    1.8191    0.4983    0.0295 O   0  0  0  0  0  0  0  0  0  0  0  0
    1.9213   -0.7064   -0.7522 C   0  0  0  0  0  0  0  0  0  0  0  0
    0.6156   -1.4950   -0.5999 C   0  0  1  0  0  0  0  0  0  0  0  0
   -0.4591   -0.6464   -1.0640 O   0  0  0  0  0  0  0  0  0  0  0  0
   -1.7467   -1.2414   -0.8983 C   0  0  0  0  0  0  0  0  0  0  0  0
   -1.9784   -1.5108    0.4808 O   0  0  0  0  0  0  0  0  0  0  0  0
   -2.7735   -0.5598    1.1944 C   0  0  2  0  0  0  0  0  0  0  0  0
   -2.3685    0.9159    0.9587 C   0  0  0  0  0  0  0  0  0  0  0  0
   -0.9661    1.1313    1.1748 O   0  0  0  0  0  0  0  0  0  0  0  0
   -2.5655   -0.8521    2.6020 O   0  0  0  0  0  0  0  0  0  0  0  0
   -3.6442   -1.7022    3.0599 C   0  0  2  0  0  0  0  0  0  0  0  0
   -3.0425   -2.9358    3.7266 C   0  0  0  0  0  0  0  0  0  0  0  0
   -2.2218   -2.5392    4.8261 O   0  0  0  0  0  0  0  0  0  0  0  0
   -4.4959   -2.0458    1.8478 C   0  0  1  0  0  0  0  0  0  0  0  0
   -5.8681   -2.2273    2.1712 O   0  0  0  0  0  0  0  0  0  0  0  0
   -4.2778   -0.8221    0.9733 C   0  0  2  0  0  0  0  0  0  0  0  0
   -4.6973   -1.0693   -0.3662 O   0  0  0  0  0  0  0  0  0  0  0  0
   -1.8465   -2.5575   -1.6861 C   0  0  2  0  0  0  0  0  0  0  0  0
   -3.1292   -3.1789   -1.4750 O   0  0  0  0  0  0  0  0  0  0  0  0
   -0.7250   -3.5074   -1.2553 C   0  0  1  0  0  0  0  0  0  0  0  0
   -0.7706   -4.6821   -2.0829 O   0  0  0  0  0  0  0  0  0  0  0  0
    0.6358   -2.8104   -1.3926 C   0  0  2  0  0  0  0  0  0  0  0  0
    1.6696   -3.6782   -0.9276 O   0  0  0  0  0  0  0  0  0  0  0  0
    2.4806    2.8261    0.3107 C   0  0  2  0  0  0  0  0  0  0  0  0
    1.3930    2.9326    1.2416 O   0  0  0  0  0  0  0  0  0  0  0  0
    2.5522    4.1296   -0.4852 C   0  0  1  0  0  0  0  0  0  0  0  0
    3.7597    4.1563   -1.2642 O   0  0  0  0  0  0  0  0  0  0  0  0
    1.3150    4.2970   -1.4055 C   0  0  1  0  0  0  0  0  0  0  0  0
    1.7665    4.7908   -2.6797 O   0  0  0  0  0  0  0  0  0  0  0  0
   -0.5328    1.0537   -2.4656 H   0  0  0  0  0  0  0  0  0  0  0  0
    0.0704    3.0324   -3.7005 H   0  0  0  0  0  0  0  0  0  0  0  0
   -1.1620    3.7954   -2.6583 H   0  0  0  0  0  0  0  0  0  0  0  0
   -0.0290    2.7361   -0.6649 H   0  0  0  0  0  0  0  0  0  0  0  0
    3.3134    1.3937   -1.0810 H   0  0  0  0  0  0  0  0  0  0  0  0
    2.0934   -0.4816   -1.8117 H   0  0  0  0  0  0  0  0  0  0  0  0
    2.7757   -1.2772   -0.3751 H   0  0  0  0  0  0  0  0  0  0  0  0
    0.4778   -1.6904    0.4717 H   0  0  0  0  0  0  0  0  0  0  0  0
   -2.4898   -0.5492   -1.3034 H   0  0  0  0  0  0  0  0  0  0  0  0
   -2.8973    1.5691    1.6606 H   0  0  0  0  0  0  0  0  0  0  0  0
   -2.6015    1.2520   -0.0555 H   0  0  0  0  0  0  0  0  0  0  0  0
   -0.4984    0.5077    0.5842 H   0  0  0  0  0  0  0  0  0  0  0  0
   -4.2084   -1.1248    3.8023 H   0  0  0  0  0  0  0  0  0  0  0  0
   -2.4020   -3.4877    3.0307 H   0  0  0  0  0  0  0  0  0  0  0  0
   -3.8207   -3.6071    4.1010 H   0  0  0  0  0  0  0  0  0  0  0  0
   -1.6879   -1.7884    4.4982 H   0  0  0  0  0  0  0  0  0  0  0  0
   -4.1511   -2.9570    1.3448 H   0  0  0  0  0  0  0  0  0  0  0  0
   -6.3656   -2.1572    1.3338 H   0  0  0  0  0  0  0  0  0  0  0  0
   -4.8804    0.0124    1.3531 H   0  0  0  0  0  0  0  0  0  0  0  0
   -4.2965   -1.9151   -0.6685 H   0  0  0  0  0  0  0  0  0  0  0  0
   -1.7593   -2.3546   -2.7606 H   0  0  0  0  0  0  0  0  0  0  0  0
   -3.0500   -4.0562   -1.9046 H   0  0  0  0  0  0  0  0  0  0  0  0
   -0.8884   -3.8565   -0.2279 H   0  0  0  0  0  0  0  0  0  0  0  0
   -0.2822   -5.3758   -1.6011 H   0  0  0  0  0  0  0  0  0  0  0  0
    0.8327   -2.6048   -2.4528 H   0  0  0  0  0  0  0  0  0  0  0  0
    1.8063   -4.3527   -1.6179 H   0  0  0  0  0  0  0  0  0  0  0  0
    3.3868    2.6674    0.9056 H   0  0  0  0  0  0  0  0  0  0  0  0
    1.0295    2.0304    1.3778 H   0  0  0  0  0  0  0  0  0  0  0  0
    2.5948    4.9825    0.2028 H   0  0  0  0  0  0  0  0  0  0  0  0
    3.7248    5.0012   -1.7564 H   0  0  0  0  0  0  0  0  0  0  0  0
    0.6366    5.0502   -0.9895 H   0  0  0  0  0  0  0  0  0  0  0  0
    2.3127    4.0728   -3.0590 H   0  0  0  0  0  0  0  0  0  0  0  0
  1  2  1  0
  2  3  1  0
  3  4  1  0
  4  5  1  0
  5  6  1  0
  6  7  1  0
  7  8  1  0
  8  9  1  0
  9 10  1  0
 10 11  1  0
 12 11  1  6
 12 13  1  0
 13 14  1  0
 12 15  1  0
 15 16  1  0
 16 17  1  0
 17 18  1  0
 16 19  1  0
 19 20  1  0
 19 21  1  0
 21 22  1  0
 10 23  1  0
 23 24  1  0
 23 25  1  0
 25 26  1  0
 25 27  1  0
 27 28  1  0
  5 29  1  0
 29 30  1  0
 29 31  1  0
 31 32  1  0
 31 33  1  0
 33 34  1  0
 33  3  1  0
 27  8  1  0
 21 12  1  0
  1 35  1  0
  2 36  1  0
  2 37  1  0
  3 38  1  1
  5 39  1  0
  7 40  1  0
  7 41  1  0
  8 42  1  1
 10 43  1  0
 13 44  1  0
 13 45  1  0
 14 46  1  0
 16 47  1  1
 17 48  1  0
 17 49  1  0
 18 50  1  0
 19 51  1  6
 20 52  1  0
 21 53  1  1
 22 54  1  0
 23 55  1  6
 24 56  1  0
 25 57  1  1
 26 58  1  0
 27 59  1  6
 28 60  1  0
 29 61  1  1
 30 62  1  0
 31 63  1  1
 32 64  1  0
 33 65  1  1
 34 66  1  0
M  END
$$$$
