
     RDKit          3D

 73 77  0  0  0  0  0  0  0  0999 V2000
   -4.1381    0.0800    0.1602 C   0  0  0  0  0  0  0  0  0  0  0  0
   -3.4005   -1.1013    0.4484 O   0  0  0  0  0  0  0  0  0  0  0  0
   -3.0389   -1.8069   -0.7423 C   0  0  0  0  0  0  0  0  0  0  0  0
   -2.0447   -2.9118   -0.3941 C   0  0  0  0  0  0  0  0  0  0  0  0
   -0.7469   -2.3571   -0.0298 N   0  0  0  0  0  0  0  0  0  0  0  0
   -0.4187   -1.9727    1.2431 C   0  0  0  0  0  0  0  0  0  0  0  0
    0.8075   -1.3306    1.2119 C   0  0  0  0  0  0  0  0  0  0  0  0
    1.5175   -0.6095    2.3350 C   0  0  0  0  0  0  0  0  0  0  0  0
    1.1110    0.8651    2.4470 C   0  0  0  0  0  0  0  0  0  0  0  0
    1.9115    1.7136    2.8293 O   0  0  0  0  0  0  0  0  0  0  0  0
   -0.2204    1.1937    2.1195 N   0  0  0  0  0  0  0  0  0  0  0  0
   -0.8197    2.7367    2.0254 S   0  0  0  0  0  0  0  0  0  0  0  0
   -2.1394    2.6436    1.4334 O   0  0  0  0  0  0  0  0  0  0  0  0
   -0.6547    3.3591    3.3230 O   0  0  0  0  0  0  0  0  0  0  0  0
    0.2489    3.5392    0.8587 C   0  0  0  0  0  0  0  0  0  0  0  0
    0.9761    4.6593    1.2813 C   0  0  0  0  0  0  0  0  0  0  0  0
    1.8229    5.3142    0.3898 C   0  0  0  0  0  0  0  0  0  0  0  0
    1.9551    4.8505   -0.9223 C   0  0  0  0  0  0  0  0  0  0  0  0
    2.8481    5.5719   -1.8898 C   0  0  0  0  0  0  0  0  0  0  0  0
    1.2105    3.7340   -1.3388 C   0  0  0  0  0  0  0  0  0  0  0  0
    0.3538    3.0640   -0.4556 C   0  0  0  0  0  0  0  0  0  0  0  0
   -0.3754    1.9553   -0.7872 O   0  0  0  0  0  0  0  0  0  0  0  0
   -0.4015    1.5654   -2.1554 C   0  0  0  0  0  0  0  0  0  0  0  0
    1.3360   -1.4399    3.6014 C   0  0  0  0  0  0  0  0  0  0  0  0
    2.1177   -2.6163    3.7646 C   0  0  0  0  0  0  0  0  0  0  0  0
    1.9965   -3.4241    4.9000 C   0  0  0  0  0  0  0  0  0  0  0  0
    1.0909   -3.0403    5.8613 C   0  0  0  0  0  0  0  0  0  0  0  0
    0.3243   -1.9085    5.7206 C   0  0  0  0  0  0  0  0  0  0  0  0
    0.4190   -1.0914    4.6111 C   0  0  0  0  0  0  0  0  0  0  0  0
   -0.5091   -1.7125    6.7785 O   0  0  0  0  0  0  0  0  0  0  0  0
   -0.1536   -2.8327    7.6143 C   0  0  0  0  0  0  0  0  0  0  0  0
    0.8391   -3.6980    7.0245 O   0  0  0  0  0  0  0  0  0  0  0  0
    1.2672   -1.4100   -0.1466 C   0  0  0  0  0  0  0  0  0  0  0  0
    2.4286   -0.9600   -0.8082 C   0  0  0  0  0  0  0  0  0  0  0  0
    2.5726   -1.1717   -2.1850 C   0  0  0  0  0  0  0  0  0  0  0  0
    1.5725   -1.8066   -2.9277 C   0  0  0  0  0  0  0  0  0  0  0  0
    1.7611   -2.0363   -4.4086 C   0  0  0  0  0  0  0  0  0  0  0  0
    0.5328   -1.7895   -5.0981 O   0  0  0  0  0  0  0  0  0  0  0  0
    0.6667   -2.0102   -6.4954 C   0  0  0  0  0  0  0  0  0  0  0  0
    0.4154   -2.2691   -2.2786 C   0  0  0  0  0  0  0  0  0  0  0  0
    0.2807   -2.0570   -0.8965 C   0  0  0  0  0  0  0  0  0  0  0  0
   -3.5292    0.7747   -0.4239 H   0  0  0  0  0  0  0  0  0  0  0  0
   -5.0544   -0.1664   -0.3826 H   0  0  0  0  0  0  0  0  0  0  0  0
   -4.4073    0.5586    1.1056 H   0  0  0  0  0  0  0  0  0  0  0  0
   -2.6099   -1.1149   -1.4764 H   0  0  0  0  0  0  0  0  0  0  0  0
   -3.9455   -2.2512   -1.1656 H   0  0  0  0  0  0  0  0  0  0  0  0
   -1.8948   -3.5894   -1.2399 H   0  0  0  0  0  0  0  0  0  0  0  0
   -2.3943   -3.5025    0.4603 H   0  0  0  0  0  0  0  0  0  0  0  0
   -1.1152   -2.1333    2.0589 H   0  0  0  0  0  0  0  0  0  0  0  0
    2.5944   -0.5922    2.1155 H   0  0  0  0  0  0  0  0  0  0  0  0
   -0.8295    0.5103    1.6776 H   0  0  0  0  0  0  0  0  0  0  0  0
    0.8953    5.0209    2.3046 H   0  0  0  0  0  0  0  0  0  0  0  0
    2.3850    6.1814    0.7298 H   0  0  0  0  0  0  0  0  0  0  0  0
    2.2975    6.3844   -2.3747 H   0  0  0  0  0  0  0  0  0  0  0  0
    3.2223    4.8895   -2.6607 H   0  0  0  0  0  0  0  0  0  0  0  0
    3.7209    5.9893   -1.3768 H   0  0  0  0  0  0  0  0  0  0  0  0
    1.3276    3.4001   -2.3655 H   0  0  0  0  0  0  0  0  0  0  0  0
   -1.0847    0.7157   -2.2487 H   0  0  0  0  0  0  0  0  0  0  0  0
    0.5877    1.2396   -2.4907 H   0  0  0  0  0  0  0  0  0  0  0  0
   -0.7860    2.3732   -2.7887 H   0  0  0  0  0  0  0  0  0  0  0  0
    2.8237   -2.9085    2.9880 H   0  0  0  0  0  0  0  0  0  0  0  0
    2.5921   -4.3216    5.0181 H   0  0  0  0  0  0  0  0  0  0  0  0
   -0.2121   -0.2101    4.5498 H   0  0  0  0  0  0  0  0  0  0  0  0
    0.2355   -2.4515    8.5652 H   0  0  0  0  0  0  0  0  0  0  0  0
   -1.0557   -3.4214    7.8153 H   0  0  0  0  0  0  0  0  0  0  0  0
    3.2155   -0.4475   -0.2613 H   0  0  0  0  0  0  0  0  0  0  0  0
    3.4800   -0.8219   -2.6722 H   0  0  0  0  0  0  0  0  0  0  0  0
    2.5262   -1.3559   -4.8023 H   0  0  0  0  0  0  0  0  0  0  0  0
    2.0823   -3.0716   -4.5705 H   0  0  0  0  0  0  0  0  0  0  0  0
    0.9735   -3.0416   -6.6960 H   0  0  0  0  0  0  0  0  0  0  0  0
   -0.3057   -1.8357   -6.9647 H   0  0  0  0  0  0  0  0  0  0  0  0
    1.3895   -1.3092   -6.9258 H   0  0  0  0  0  0  0  0  0  0  0  0
   -0.3638   -2.7675   -2.8491 H   0  0  0  0  0  0  0  0  0  0  0  0
  1  2  1  0
  2  3  1  0
  3  4  1  0
  4  5  1  0
  5  6  1  0
  6  7  2  0
  7  8  1  0
  8  9  1  0
  9 10  2  0
  9 11  1  0
 11 12  1  0
 12 13  2  0
 12 14  2  0
 12 15  1  0
 15 16  2  0
 16 17  1  0
 17 18  2  0
 18 19  1  0
 18 20  1  0
 20 21  2  0
 21 22  1  0
 22 23  1  0
  8 24  1  0
 24 25  2  0
 25 26  1  0
 26 27  2  0
 27 28  1  0
 28 29  2  0
 28 30  1  0
 30 31  1  0
 31 32  1  0
  7 33  1  0
 33 34  2  0
 34 35  1  0
 35 36  2  0
 36 37  1  0
 37 38  1  0
 38 39  1  0
 36 40  1  0
 40 41  2  0
 41  5  1  0
 21 15  1  0
 29 24  1  0
 41 33  1  0
 32 27  1  0
  1 42  1  0
  1 43  1  0
  1 44  1  0
  3 45  1  0
  3 46  1  0
  4 47  1  0
  4 48  1  0
  6 49  1  0
  8 50  1  0
 11 51  1  0
 16 52  1  0
 17 53  1  0
 19 54  1  0
 19 55  1  0
 19 56  1  0
 20 57  1  0
 23 58  1  0
 23 59  1  0
 23 60  1  0
 25 61  1  0
 26 62  1  0
 29 63  1  0
 31 64  1  0
 31 65  1  0
 34 66  1  0
 35 67  1  0
 37 68  1  0
 37 69  1  0
 39 70  1  0
 39 71  1  0
 39 72  1  0
 40 73  1  0
M  END
$$$$
