@<TRIPOS>MOLECULE
MOL
   73    77     1     0     0
SMALL
bcc


@<TRIPOS>ATOM
      1 C1          -4.1380     0.0800     0.1600 c3         1 MOL       0.107700
      2 O1          -3.4010    -1.1010     0.4480 os         1 MOL      -0.437600
      3 C2          -3.0390    -1.8070    -0.7420 c3         1 MOL       0.101400
      4 C3          -2.0450    -2.9120    -0.3940 c3         1 MOL       0.034300
      5 N1          -0.7470    -2.3570    -0.0300 na         1 MOL      -0.061400
      6 C4          -0.4190    -1.9730     1.2430 cc         1 MOL      -0.063100
      7 C5           0.8070    -1.3310     1.2120 cd         1 MOL      -0.176400
      8 C6           1.5180    -0.6100     2.3350 c3         1 MOL       0.000800
      9 C7           1.1110     0.8650     2.4470 c          1 MOL       0.697100
     10 O2           1.9110     1.7140     2.8290 o          1 MOL      -0.572100
     11 N2          -0.2200     1.1940     2.1190 ns         1 MOL      -0.666300
     12 S1          -0.8200     2.7370     2.0250 sy         1 MOL       1.522900
     13 O3          -2.1390     2.6440     1.4330 o          1 MOL      -0.648800
     14 O4          -0.6550     3.3590     3.3230 o          1 MOL      -0.648800
     15 C8           0.2490     3.5390     0.8590 ca         1 MOL      -0.419500
     16 C9           0.9760     4.6590     1.2810 ca         1 MOL       0.024000
     17 C10          1.8230     5.3140     0.3900 ca         1 MOL      -0.195000
     18 C11          1.9550     4.8510    -0.9220 ca         1 MOL       0.028700
     19 C12          2.8480     5.5720    -1.8900 c3         1 MOL      -0.069800
     20 C13          1.2100     3.7340    -1.3390 ca         1 MOL      -0.238000
     21 C14          0.3540     3.0640    -0.4560 ca         1 MOL       0.253100
     22 O5          -0.3750     1.9550    -0.7870 os         1 MOL      -0.336900
     23 C15         -0.4020     1.5650    -2.1550 c3         1 MOL       0.117700
     24 C16          1.3360    -1.4400     3.6010 ca         1 MOL      -0.074300
     25 C17          2.1180    -2.6160     3.7650 ca         1 MOL      -0.111000
     26 C18          1.9960    -3.4240     4.9000 ca         1 MOL      -0.112000
     27 C19          1.0910    -3.0400     5.8610 ca         1 MOL       0.060100
     28 C20          0.3240    -1.9090     5.7210 ca         1 MOL       0.059100
     29 C21          0.4190    -1.0910     4.6110 ca         1 MOL      -0.109000
     30 O6          -0.5090    -1.7120     6.7790 os         1 MOL      -0.331900
     31 C22         -0.1540    -2.8330     7.6140 c3         1 MOL       0.321200
     32 O7           0.8390    -3.6980     7.0240 os         1 MOL      -0.333900
     33 C23          1.2670    -1.4100    -0.1470 ca         1 MOL      -0.075800
     34 C24          2.4290    -0.9600    -0.8080 ca         1 MOL      -0.092000
     35 C25          2.5730    -1.1720    -2.1850 ca         1 MOL      -0.149000
     36 C26          1.5730    -1.8070    -2.9280 ca         1 MOL      -0.079300
     37 C27          1.7610    -2.0360    -4.4090 c3         1 MOL       0.173700
     38 O8           0.5330    -1.7900    -5.0980 os         1 MOL      -0.424600
     39 C28          0.6670    -2.0100    -6.4950 c3         1 MOL       0.115700
     40 C29          0.4150    -2.2690    -2.2790 ca         1 MOL      -0.110000
     41 C30          0.2810    -2.0570    -0.8960 ca         1 MOL      -0.055200
     42 H1          -3.5290     0.7750    -0.4240 h1         1 MOL       0.048367
     43 H2          -5.0540    -0.1660    -0.3830 h1         1 MOL       0.048367
     44 H3          -4.4070     0.5590     1.1060 h1         1 MOL       0.048367
     45 H4          -2.6100    -1.1150    -1.4760 h1         1 MOL       0.038700
     46 H5          -3.9460    -2.2510    -1.1660 h1         1 MOL       0.038700
     47 H6          -1.8950    -3.5890    -1.2400 h1         1 MOL       0.073200
     48 H7          -2.3940    -3.5020     0.4600 h1         1 MOL       0.073200
     49 H8          -1.1150    -2.1330     2.0590 h4         1 MOL       0.186000
     50 H9           2.5940    -0.5920     2.1150 hc         1 MOL       0.094700
     51 H10         -0.8300     0.5100     1.6780 hn         1 MOL       0.348500
     52 H11          0.8950     5.0210     2.3050 ha         1 MOL       0.172000
     53 H12          2.3850     6.1810     0.7300 ha         1 MOL       0.144000
     54 H13          2.2970     6.3840    -2.3750 hc         1 MOL       0.054367
     55 H14          3.2220     4.8890    -2.6610 hc         1 MOL       0.054367
     56 H15          3.7210     5.9890    -1.3770 hc         1 MOL       0.054367
     57 H16          1.3280     3.4000    -2.3650 ha         1 MOL       0.144000
     58 H17         -1.0850     0.7160    -2.2490 h1         1 MOL       0.052033
     59 H18          0.5880     1.2400    -2.4910 h1         1 MOL       0.052033
     60 H19         -0.7860     2.3730    -2.7890 h1         1 MOL       0.052033
     61 H20          2.8240    -2.9090     2.9880 ha         1 MOL       0.142000
     62 H21          2.5920    -4.3220     5.0180 ha         1 MOL       0.157000
     63 H22         -0.2120    -0.2100     4.5500 ha         1 MOL       0.156000
     64 H23          0.2350    -2.4510     8.5650 h2         1 MOL       0.073200
     65 H24         -1.0560    -3.4210     7.8150 h2         1 MOL       0.073200
     66 H25          3.2160    -0.4480    -0.2610 ha         1 MOL       0.137000
     67 H26          3.4800    -0.8220    -2.6720 ha         1 MOL       0.130000
     68 H27          2.5260    -1.3560    -4.8020 h1         1 MOL       0.037200
     69 H28          2.0820    -3.0720    -4.5710 h1         1 MOL       0.037200
     70 H29          0.9740    -3.0420    -6.6960 h1         1 MOL       0.034033
     71 H30         -0.3060    -1.8360    -6.9650 h1         1 MOL       0.034033
     72 H31          1.3890    -1.3090    -6.9260 h1         1 MOL       0.034033
     73 H32         -0.3640    -2.7680    -2.8490 ha         1 MOL       0.151000
@<TRIPOS>BOND
     1     1     2 1   
     2     2     3 1   
     3     3     4 1   
     4     4     5 1   
     5     5     6 1   
     6     6     7 2   
     7     7     8 1   
     8     8     9 1   
     9     9    10 2   
    10     9    11 1   
    11    11    12 1   
    12    12    13 2   
    13    12    14 2   
    14    12    15 1   
    15    15    16 ar  
    16    16    17 ar  
    17    17    18 ar  
    18    18    19 1   
    19    18    20 ar  
    20    20    21 ar  
    21    21    22 1   
    22    22    23 1   
    23     8    24 1   
    24    24    25 ar  
    25    25    26 ar  
    26    26    27 ar  
    27    27    28 ar  
    28    28    29 ar  
    29    28    30 1   
    30    30    31 1   
    31    31    32 1   
    32     7    33 1   
    33    33    34 ar  
    34    34    35 ar  
    35    35    36 ar  
    36    36    37 1   
    37    37    38 1   
    38    38    39 1   
    39    36    40 ar  
    40    40    41 ar  
    41    41     5 1   
    42    21    15 ar  
    43    29    24 ar  
    44    41    33 ar  
    45    32    27 1   
    46     1    42 1   
    47     1    43 1   
    48     1    44 1   
    49     3    45 1   
    50     3    46 1   
    51     4    47 1   
    52     4    48 1   
    53     6    49 1   
    54     8    50 1   
    55    11    51 1   
    56    16    52 1   
    57    17    53 1   
    58    19    54 1   
    59    19    55 1   
    60    19    56 1   
    61    20    57 1   
    62    23    58 1   
    63    23    59 1   
    64    23    60 1   
    65    25    61 1   
    66    26    62 1   
    67    29    63 1   
    68    31    64 1   
    69    31    65 1   
    70    34    66 1   
    71    35    67 1   
    72    37    68 1   
    73    37    69 1   
    74    39    70 1   
    75    39    71 1   
    76    39    72 1   
    77    40    73 1   
@<TRIPOS>SUBSTRUCTURE
     1 MOL         1 TEMP              0 ****  ****    0 ROOT
