@<TRIPOS>MOLECULE
MOL
   31    31     1     0     0
SMALL
bcc


@<TRIPOS>ATOM
      1 C1          -0.8980     3.1360     0.1110 c3         1 MOL      -0.070100
      2 C2          -0.7830     2.8640    -1.3740 c3         1 MOL      -0.323600
      3 S1          -1.4470     1.2800    -1.8610 s6         1 MOL       1.327000
      4 O1          -1.2200     1.1410    -3.2870 o          1 MOL      -0.648800
      5 O2          -2.7860     1.1570    -1.3160 o          1 MOL      -0.648800
      6 C3          -0.4190     0.0930    -1.0310 c3         1 MOL      -0.352600
      7 C4          -0.7880    -1.3080    -1.4800 c3         1 MOL       0.067300
      8 N1          -0.0400    -2.3160    -0.7470 na         1 MOL      -0.177900
      9 C5           1.2230    -2.7960    -1.0240 cc         1 MOL      -0.139000
     10 N2           2.0110    -2.4070    -2.0540 nh         1 MOL      -0.025000
     11 O3           1.7270    -1.3310    -2.8590 oh         1 MOL      -0.439800
     12 O4           3.2130    -3.0420    -2.2950 oh         1 MOL      -0.439800
     13 C6           1.4550    -3.7280    -0.0310 cd         1 MOL       0.322200
     14 N3           0.3950    -3.8280     0.8250 nd         1 MOL      -0.659000
     15 C7          -0.5020    -2.9730     0.3810 cc         1 MOL       0.416800
     16 C8          -1.8320    -2.7370     1.0020 c3         1 MOL      -0.126400
     17 H1          -0.3130     2.4220     0.6960 hc         1 MOL       0.052367
     18 H2          -0.5270     4.1400     0.3400 hc         1 MOL       0.052367
     19 H3          -1.9380     3.0750     0.4470 hc         1 MOL       0.052367
     20 H4          -1.3380     3.6190    -1.9390 h1         1 MOL       0.119700
     21 H5           0.2620     2.8950    -1.6990 h1         1 MOL       0.119700
     22 H6           0.6220     0.3380    -1.2590 h1         1 MOL       0.124700
     23 H7          -0.5760     0.2110     0.0450 h1         1 MOL       0.124700
     24 H8          -0.6280    -1.4670    -2.5500 h1         1 MOL       0.089700
     25 H9          -1.8550    -1.4980    -1.3200 h1         1 MOL       0.089700
     26 H10          2.5930    -1.1750    -3.2770 ho         1 MOL       0.427500
     27 H11          2.9240    -3.9190    -2.6070 ho         1 MOL       0.427500
     28 H12          2.3440    -4.3270     0.1110 h4         1 MOL       0.053100
     29 H13         -1.9180    -3.2930     1.9410 hc         1 MOL       0.061700
     30 H14         -1.9780    -1.6760     1.2270 hc         1 MOL       0.061700
     31 H15         -2.6330    -3.0740     0.3370 hc         1 MOL       0.061700
@<TRIPOS>BOND
     1     1     2 1   
     2     2     3 1   
     3     3     4 2   
     4     3     5 2   
     5     3     6 1   
     6     6     7 1   
     7     7     8 1   
     8     8     9 1   
     9     9    10 1   
    10    10    11 1   
    11    10    12 1   
    12     9    13 2   
    13    13    14 1   
    14    14    15 2   
    15    15    16 1   
    16    15     8 1   
    17     1    17 1   
    18     1    18 1   
    19     1    19 1   
    20     2    20 1   
    21     2    21 1   
    22     6    22 1   
    23     6    23 1   
    24     7    24 1   
    25     7    25 1   
    26    11    26 1   
    27    12    27 1   
    28    13    28 1   
    29    16    29 1   
    30    16    30 1   
    31    16    31 1   
@<TRIPOS>SUBSTRUCTURE
     1 MOL         1 TEMP              0 ****  ****    0 ROOT
