
     RDKit          3D

 31 31  0  0  0  0  0  0  0  0999 V2000
   -0.8985    3.1365    0.1109 C   0  0  0  0  0  0  0  0  0  0  0  0
   -0.7826    2.8641   -1.3740 C   0  0  0  0  0  0  0  0  0  0  0  0
   -1.4474    1.2802   -1.8613 S   0  0  0  0  0  0  0  0  0  0  0  0
   -1.2195    1.1405   -3.2869 O   0  0  0  0  0  0  0  0  0  0  0  0
   -2.7856    1.1566   -1.3159 O   0  0  0  0  0  0  0  0  0  0  0  0
   -0.4186    0.0930   -1.0314 C   0  0  0  0  0  0  0  0  0  0  0  0
   -0.7879   -1.3085   -1.4796 C   0  0  0  0  0  0  0  0  0  0  0  0
   -0.0401   -2.3157   -0.7466 N   0  0  0  0  0  0  0  0  0  0  0  0
    1.2233   -2.7965   -1.0238 C   0  0  0  0  0  0  0  0  0  0  0  0
    2.0112   -2.4072   -2.0538 N   0  0  0  0  0  0  0  0  0  0  0  0
    1.7266   -1.3305   -2.8593 O   0  0  0  0  0  0  0  0  0  0  0  0
    3.2134   -3.0416   -2.2952 O   0  0  0  0  0  0  0  0  0  0  0  0
    1.4547   -3.7277   -0.0311 C   0  0  0  0  0  0  0  0  0  0  0  0
    0.3945   -3.8283    0.8254 N   0  0  0  0  0  0  0  0  0  0  0  0
   -0.5017   -2.9727    0.3811 C   0  0  0  0  0  0  0  0  0  0  0  0
   -1.8321   -2.7371    1.0020 C   0  0  0  0  0  0  0  0  0  0  0  0
   -0.3126    2.4221    0.6960 H   0  0  0  0  0  0  0  0  0  0  0  0
   -0.5266    4.1400    0.3400 H   0  0  0  0  0  0  0  0  0  0  0  0
   -1.9380    3.0752    0.4474 H   0  0  0  0  0  0  0  0  0  0  0  0
   -1.3383    3.6195   -1.9391 H   0  0  0  0  0  0  0  0  0  0  0  0
    0.2619    2.8954   -1.6986 H   0  0  0  0  0  0  0  0  0  0  0  0
    0.6221    0.3375   -1.2593 H   0  0  0  0  0  0  0  0  0  0  0  0
   -0.5755    0.2112    0.0449 H   0  0  0  0  0  0  0  0  0  0  0  0
   -0.6278   -1.4672   -2.5503 H   0  0  0  0  0  0  0  0  0  0  0  0
   -1.8551   -1.4985   -1.3201 H   0  0  0  0  0  0  0  0  0  0  0  0
    2.5931   -1.1750   -3.2771 H   0  0  0  0  0  0  0  0  0  0  0  0
    2.9235   -3.9188   -2.6073 H   0  0  0  0  0  0  0  0  0  0  0  0
    2.3442   -4.3266    0.1109 H   0  0  0  0  0  0  0  0  0  0  0  0
   -1.9180   -3.2933    1.9409 H   0  0  0  0  0  0  0  0  0  0  0  0
   -1.9781   -1.6764    1.2270 H   0  0  0  0  0  0  0  0  0  0  0  0
   -2.6332   -3.0739    0.3372 H   0  0  0  0  0  0  0  0  0  0  0  0
  1  2  1  0
  2  3  1  0
  3  4  2  0
  3  5  2  0
  3  6  1  0
  6  7  1  0
  7  8  1  0
  8  9  1  0
  9 10  1  0
 10 11  1  0
 10 12  1  0
  9 13  2  0
 13 14  1  0
 14 15  2  0
 15 16  1  0
 15  8  1  0
  1 17  1  0
  1 18  1  0
  1 19  1  0
  2 20  1  0
  2 21  1  0
  6 22  1  0
  6 23  1  0
  7 24  1  0
  7 25  1  0
 11 26  1  0
 12 27  1  0
 13 28  1  0
 16 29  1  0
 16 30  1  0
 16 31  1  0
M  END
$$$$
