
     RDKit          3D

 61 63  0  0  0  0  0  0  0  0999 V2000
    1.5384   -3.2412    3.1601 C   0  0  0  0  0  0  0  0  0  0  0  0
    0.7222   -3.1777    1.8798 C   0  0  0  0  0  0  0  0  0  0  0  0
    1.5856   -2.7692    0.6853 C   0  0  0  0  0  0  0  0  0  0  0  0
    0.7878   -2.6869   -0.5489 N   0  0  0  0  0  0  0  0  0  0  0  0
    0.6599   -3.9140   -1.3318 C   0  0  0  0  0  0  0  0  0  0  0  0
    1.8492   -4.0623   -2.2158 C   0  0  0  0  0  0  0  0  0  0  0  0
    2.2399   -3.2278   -3.3047 C   0  0  0  0  0  0  0  0  0  0  0  0
    3.3961   -3.7667   -3.8170 C   0  0  0  0  0  0  0  0  0  0  0  0
    3.7450   -4.8784   -3.1233 O   0  0  0  0  0  0  0  0  0  0  0  0
    2.8076   -5.0551   -2.1595 C   0  0  0  0  0  0  0  0  0  0  0  0
    0.0936   -1.5607   -0.9633 C   0  0  0  0  0  0  0  0  0  0  0  0
   -0.6999   -1.5282   -1.9098 O   0  0  0  0  0  0  0  0  0  0  0  0
    0.2680   -0.2875   -0.2477 C   0  0  0  0  0  0  0  0  0  0  0  0
    1.4616    0.4336   -0.3448 C   0  0  0  0  0  0  0  0  0  0  0  0
    1.5447    1.7147    0.2151 C   0  0  0  0  0  0  0  0  0  0  0  0
    2.8396    2.4746    0.1928 C   0  0  0  0  0  0  0  0  0  0  0  0
    0.4114    2.2692    0.8309 C   0  0  0  0  0  0  0  0  0  0  0  0
   -0.7896    1.5601    0.8625 C   0  0  0  0  0  0  0  0  0  0  0  0
   -1.9564    2.0690    1.3589 O   0  0  0  0  0  0  0  0  0  0  0  0
   -2.3696    3.3002    0.7415 C   0  0  0  0  0  0  0  0  0  0  0  0
   -2.7714    3.1021   -0.7176 C   0  0  0  0  0  0  0  0  0  0  0  0
   -3.8397    2.0412   -0.9220 C   0  0  0  0  0  0  0  0  0  0  0  0
   -3.9495    1.6252   -2.2954 O   0  0  0  0  0  0  0  0  0  0  0  0
   -3.0365    0.5314   -2.5596 N   0  0  0  0  0  0  0  0  0  0  0  0
   -3.1087   -0.1730   -3.7089 C   0  0  0  0  0  0  0  0  0  0  0  0
   -4.0318    0.1397   -4.6209 N   0  0  0  0  0  0  0  0  0  0  0  0
   -2.2711   -1.1802   -3.9417 N   0  0  0  0  0  0  0  0  0  0  0  0
   -2.8950    4.3660   -1.5546 C   0  0  0  0  0  0  0  0  0  0  0  0
   -1.7502    3.4311   -1.8001 C   0  0  0  0  0  0  0  0  0  0  0  0
   -0.8508    0.2611    0.3747 C   0  0  0  0  0  0  0  0  0  0  0  0
    0.9033   -3.5415    3.9995 H   0  0  0  0  0  0  0  0  0  0  0  0
    1.9735   -2.2645    3.3962 H   0  0  0  0  0  0  0  0  0  0  0  0
    2.3519   -3.9683    3.0714 H   0  0  0  0  0  0  0  0  0  0  0  0
    0.2637   -4.1561    1.6952 H   0  0  0  0  0  0  0  0  0  0  0  0
   -0.1010   -2.4663    2.0117 H   0  0  0  0  0  0  0  0  0  0  0  0
    2.3972   -3.4902    0.5340 H   0  0  0  0  0  0  0  0  0  0  0  0
    2.0581   -1.8069    0.8929 H   0  0  0  0  0  0  0  0  0  0  0  0
   -0.2447   -3.8832   -1.9495 H   0  0  0  0  0  0  0  0  0  0  0  0
    0.5566   -4.7648   -0.6493 H   0  0  0  0  0  0  0  0  0  0  0  0
    1.7406   -2.3405   -3.6662 H   0  0  0  0  0  0  0  0  0  0  0  0
    4.0585   -3.4964   -4.6280 H   0  0  0  0  0  0  0  0  0  0  0  0
    2.9576   -5.9170   -1.5229 H   0  0  0  0  0  0  0  0  0  0  0  0
    2.3195    0.0009   -0.8564 H   0  0  0  0  0  0  0  0  0  0  0  0
    3.3891    2.3021    1.1235 H   0  0  0  0  0  0  0  0  0  0  0  0
    2.6569    3.5484    0.0799 H   0  0  0  0  0  0  0  0  0  0  0  0
    3.4664    2.1615   -0.6489 H   0  0  0  0  0  0  0  0  0  0  0  0
    0.4741    3.2585    1.2783 H   0  0  0  0  0  0  0  0  0  0  0  0
   -1.6076    4.0790    0.8653 H   0  0  0  0  0  0  0  0  0  0  0  0
   -3.2502    3.6438    1.2970 H   0  0  0  0  0  0  0  0  0  0  0  0
   -3.6803    1.1587   -0.2947 H   0  0  0  0  0  0  0  0  0  0  0  0
   -4.8117    2.4595   -0.6382 H   0  0  0  0  0  0  0  0  0  0  0  0
   -2.2922    0.2928   -1.9078 H   0  0  0  0  0  0  0  0  0  0  0  0
   -4.1271   -0.3609   -5.4915 H   0  0  0  0  0  0  0  0  0  0  0  0
   -4.6562    0.9123   -4.4228 H   0  0  0  0  0  0  0  0  0  0  0  0
   -2.2940   -1.7275   -4.7881 H   0  0  0  0  0  0  0  0  0  0  0  0
   -1.5767   -1.4375   -3.2295 H   0  0  0  0  0  0  0  0  0  0  0  0
   -2.6739    5.3249   -1.0957 H   0  0  0  0  0  0  0  0  0  0  0  0
   -3.6711    4.4277   -2.3105 H   0  0  0  0  0  0  0  0  0  0  0  0
   -0.7617    3.7714   -1.5073 H   0  0  0  0  0  0  0  0  0  0  0  0
   -1.7433    2.8856   -2.7358 H   0  0  0  0  0  0  0  0  0  0  0  0
   -1.7765   -0.3021    0.4444 H   0  0  0  0  0  0  0  0  0  0  0  0
  1  2  1  0
  2  3  1  0
  3  4  1  0
  4  5  1  0
  5  6  1  0
  6  7  1  0
  7  8  2  0
  8  9  1  0
  9 10  1  0
  4 11  1  0
 11 12  2  0
 11 13  1  0
 13 14  2  0
 14 15  1  0
 15 16  1  0
 15 17  2  0
 17 18  1  0
 18 19  1  0
 19 20  1  0
 20 21  1  0
 21 22  1  0
 22 23  1  0
 23 24  1  0
 24 25  2  3
 25 26  1  0
 25 27  1  0
 21 28  1  0
 28 29  1  0
 18 30  2  0
 10  6  2  0
 30 13  1  0
 29 21  1  0
  1 31  1  0
  1 32  1  0
  1 33  1  0
  2 34  1  0
  2 35  1  0
  3 36  1  0
  3 37  1  0
  5 38  1  0
  5 39  1  0
  7 40  1  0
  8 41  1  0
 10 42  1  0
 14 43  1  0
 16 44  1  0
 16 45  1  0
 16 46  1  0
 17 47  1  0
 20 48  1  0
 20 49  1  0
 22 50  1  0
 22 51  1  0
 24 52  1  0
 26 53  1  0
 26 54  1  0
 27 55  1  0
 27 56  1  0
 28 57  1  0
 28 58  1  0
 29 59  1  0
 29 60  1  0
 30 61  1  0
M  CHG  1  24   1
M  END
$$$$
