@<TRIPOS>MOLECULE
MOL
   61    63     1     0     0
SMALL
bcc


@<TRIPOS>ATOM
      1 C1           1.5380    -3.2410     3.1600 c3         1 MOL      -0.097100
      2 C2           0.7220    -3.1780     1.8800 c3         1 MOL      -0.100400
      3 C3           1.5860    -2.7690     0.6850 c3         1 MOL       0.078000
      4 N1           0.7880    -2.6870    -0.5490 n          1 MOL      -0.422800
      5 C4           0.6600    -3.9140    -1.3320 c3         1 MOL       0.157300
      6 C5           1.8490    -4.0620    -2.2160 cc         1 MOL      -0.261600
      7 C6           2.2400    -3.2280    -3.3050 cc         1 MOL      -0.258300
      8 C7           3.3960    -3.7670    -3.8170 cd         1 MOL       0.249600
      9 O1           3.7450    -4.8780    -3.1230 os         1 MOL      -0.346800
     10 C8           2.8080    -5.0550    -2.1590 cd         1 MOL       0.265600
     11 C9           0.0940    -1.5610    -0.9630 c          1 MOL       0.692700
     12 O2          -0.7000    -1.5280    -1.9100 o          1 MOL      -0.731100
     13 C10          0.2680    -0.2870    -0.2480 ca         1 MOL      -0.126600
     14 C11          1.4620     0.4340    -0.3450 ca         1 MOL      -0.124000
     15 C12          1.5450     1.7150     0.2150 ca         1 MOL      -0.042300
     16 C13          2.8400     2.4750     0.1930 c3         1 MOL      -0.066800
     17 C14          0.4110     2.2690     0.8310 ca         1 MOL      -0.143000
     18 C15         -0.7900     1.5600     0.8630 ca         1 MOL       0.111100
     19 O3          -1.9560     2.0690     1.3590 os         1 MOL      -0.333900
     20 C16         -2.3700     3.3000     0.7420 c3         1 MOL       0.161400
     21 C17         -2.7710     3.1020    -0.7180 cx         1 MOL      -0.194000
     22 C18         -3.8400     2.0410    -0.9220 c3         1 MOL       0.172400
     23 O4          -3.9500     1.6250    -2.2950 os         1 MOL      -0.320000
     24 N2          -3.0370     0.5310    -2.5600 nu         1 MOL      -0.205200
     25 C19         -3.1090    -0.1730    -3.7090 cz         1 MOL       0.480300
     26 N3          -4.0320     0.1400    -4.6210 nv         1 MOL      -0.481700
     27 N4          -2.2710    -1.1800    -3.9420 nv         1 MOL      -0.481700
     28 C20         -2.8950     4.3660    -1.5550 cx         1 MOL      -0.105400
     29 C21         -1.7500     3.4310    -1.8000 cx         1 MOL      -0.105400
     30 C22         -0.8510     0.2610     0.3750 ca         1 MOL      -0.144000
     31 H1           0.9030    -3.5420     3.9990 hc         1 MOL       0.044033
     32 H2           1.9740    -2.2640     3.3960 hc         1 MOL       0.044033
     33 H3           2.3520    -3.9680     3.0710 hc         1 MOL       0.044033
     34 H4           0.2640    -4.1560     1.6950 hc         1 MOL       0.050200
     35 H5          -0.1010    -2.4660     2.0120 hc         1 MOL       0.050200
     36 H6           2.3970    -3.4900     0.5340 h1         1 MOL       0.064700
     37 H7           2.0580    -1.8070     0.8930 h1         1 MOL       0.064700
     38 H8          -0.2450    -3.8830    -1.9500 h1         1 MOL       0.077200
     39 H9           0.5570    -4.7650    -0.6490 h1         1 MOL       0.077200
     40 H10          1.7410    -2.3410    -3.6660 ha         1 MOL       0.158000
     41 H11          4.0590    -3.4960    -4.6280 h4         1 MOL       0.064100
     42 H12          2.9580    -5.9170    -1.5230 h4         1 MOL       0.061100
     43 H13          2.3200     0.0010    -0.8560 ha         1 MOL       0.151000
     44 H14          3.3890     2.3020     1.1230 hc         1 MOL       0.058700
     45 H15          2.6570     3.5480     0.0800 hc         1 MOL       0.058700
     46 H16          3.4660     2.1620    -0.6490 hc         1 MOL       0.058700
     47 H17          0.4740     3.2590     1.2780 ha         1 MOL       0.155000
     48 H18         -1.6080     4.0790     0.8650 h1         1 MOL       0.072700
     49 H19         -3.2500     3.6440     1.2970 h1         1 MOL       0.072700
     50 H20         -3.6800     1.1590    -0.2950 h1         1 MOL       0.092700
     51 H21         -4.8120     2.4590    -0.6380 h1         1 MOL       0.092700
     52 H22         -2.2920     0.2930    -1.9080 hn         1 MOL       0.316700
     53 H23         -4.1270    -0.3610    -5.4920 hn         1 MOL       0.331700
     54 H24         -4.6560     0.9120    -4.4230 hn         1 MOL       0.331700
     55 H25         -2.2940    -1.7280    -4.7880 hn         1 MOL       0.331700
     56 H26         -1.5770    -1.4380    -3.2290 hn         1 MOL       0.331700
     57 H27         -2.6740     5.3250    -1.0960 hc         1 MOL       0.079700
     58 H28         -3.6710     4.4280    -2.3110 hc         1 MOL       0.079700
     59 H29         -0.7620     3.7710    -1.5070 hc         1 MOL       0.079700
     60 H30         -1.7430     2.8860    -2.7360 hc         1 MOL       0.079700
     61 H31         -1.7760    -0.3020     0.4440 ha         1 MOL       0.150000
@<TRIPOS>BOND
     1     1     2 1   
     2     2     3 1   
     3     3     4 1   
     4     4     5 1   
     5     5     6 1   
     6     6     7 1   
     7     7     8 2   
     8     8     9 1   
     9     9    10 1   
    10     4    11 1   
    11    11    12 2   
    12    11    13 1   
    13    13    14 ar  
    14    14    15 ar  
    15    15    16 1   
    16    15    17 ar  
    17    17    18 ar  
    18    18    19 1   
    19    19    20 1   
    20    20    21 1   
    21    21    22 1   
    22    22    23 1   
    23    23    24 1   
    24    24    25 2   
    25    25    26 1   
    26    25    27 1   
    27    21    28 1   
    28    28    29 1   
    29    18    30 ar  
    30    10     6 2   
    31    30    13 ar  
    32    29    21 1   
    33     1    31 1   
    34     1    32 1   
    35     1    33 1   
    36     2    34 1   
    37     2    35 1   
    38     3    36 1   
    39     3    37 1   
    40     5    38 1   
    41     5    39 1   
    42     7    40 1   
    43     8    41 1   
    44    10    42 1   
    45    14    43 1   
    46    16    44 1   
    47    16    45 1   
    48    16    46 1   
    49    17    47 1   
    50    20    48 1   
    51    20    49 1   
    52    22    50 1   
    53    22    51 1   
    54    24    52 1   
    55    26    53 1   
    56    26    54 1   
    57    27    55 1   
    58    27    56 1   
    59    28    57 1   
    60    28    58 1   
    61    29    59 1   
    62    29    60 1   
    63    30    61 1   
@<TRIPOS>SUBSTRUCTURE
     1 MOL         1 TEMP              0 ****  ****    0 ROOT
