@<TRIPOS>MOLECULE
MOL
   62    66     1     0     0
SMALL
bcc


@<TRIPOS>ATOM
      1 C1          -5.1810     1.2340     7.3790 c3         1 MOL      -0.153400
      2 C2          -4.6510     1.9090     6.1490 ca         1 MOL       0.426600
      3 C3          -4.2410     1.1530     5.0610 ca         1 MOL      -0.232300
      4 C4          -3.7510     1.8030     3.9210 ca         1 MOL      -0.041300
      5 C5          -3.3190     0.9660     2.7390 c3         1 MOL       0.167700
      6 O1          -1.8950     0.9780     2.6750 os         1 MOL      -0.317900
      7 C6          -1.3100     0.3520     1.6110 ca         1 MOL       0.149100
      8 C7          -1.9670    -0.3920     0.6300 ca         1 MOL      -0.192000
      9 C8          -1.2380    -0.9800    -0.4090 ca         1 MOL      -0.050500
     10 C9           0.1530    -0.8400    -0.4690 ca         1 MOL      -0.180600
     11 C10          0.8800    -1.4800    -1.5960 c          1 MOL       0.682700
     12 O2           0.3290    -1.6320    -2.6820 o          1 MOL      -0.631100
     13 N1           2.1810    -1.8700    -1.3560 ns         1 MOL      -0.572900
     14 C11          2.9600    -2.6100    -2.3330 c3         1 MOL       0.108700
     15 C12          4.3800    -2.8860    -1.8510 c3         1 MOL      -0.109400
     16 C13          5.0510    -3.4210    -3.1080 c3         1 MOL       0.342600
     17 C14          4.4440    -2.6310    -4.2730 c3         1 MOL      -0.103400
     18 C15          3.1740    -1.9610    -3.7130 c3         1 MOL      -0.157700
     19 C16          3.3560    -0.4550    -3.6180 c          1 MOL       0.606100
     20 O3           4.4290     0.0970    -3.3790 o          1 MOL      -0.573100
     21 N2           2.2030     0.2650    -3.8020 ns         1 MOL      -0.361400
     22 O4           2.3030     1.6680    -3.7010 oh         1 MOL      -0.430100
     23 O5           6.4680    -3.2630    -3.0530 os         1 MOL      -0.437600
     24 C17          6.9790    -4.5840    -2.8880 c3         1 MOL       0.106900
     25 C18          5.9620    -5.4380    -3.5920 c3         1 MOL       0.106900
     26 O6           4.7230    -4.8140    -3.2520 os         1 MOL      -0.437600
     27 C19          0.8120    -0.0830     0.5050 ca         1 MOL      -0.050500
     28 C20          0.0780     0.5020     1.5420 ca         1 MOL      -0.192000
     29 C21         -3.6670     3.2180     3.9220 ca         1 MOL      -0.130300
     30 C22         -3.1630     3.9840     2.8420 ca         1 MOL      -0.107000
     31 C23         -3.1130     5.3760     2.9020 ca         1 MOL      -0.126000
     32 C24         -3.5630     6.0270     4.0410 ca         1 MOL      -0.122000
     33 C25         -4.0560     5.2810     5.1130 ca         1 MOL      -0.167300
     34 C26         -4.1150     3.8940     5.0790 ca         1 MOL       0.399600
     35 N3          -4.5980     3.2570     6.1580 nb         1 MOL      -0.654000
     36 H1          -6.0710     0.6460     7.1340 hc         1 MOL       0.056033
     37 H2          -5.4580     1.9720     8.1390 hc         1 MOL       0.056033
     38 H3          -4.4190     0.5750     7.8060 hc         1 MOL       0.056033
     39 H4          -4.3010     0.0690     5.1020 ha         1 MOL       0.143000
     40 H5          -3.7660     1.3750     1.8240 h1         1 MOL       0.052700
     41 H6          -3.6750    -0.0650     2.8620 h1         1 MOL       0.052700
     42 H7          -3.0430    -0.5360     0.6400 ha         1 MOL       0.150500
     43 H8          -1.7600    -1.5540    -1.1730 ha         1 MOL       0.151500
     44 H9           2.5420    -1.8080    -0.4120 hn         1 MOL       0.329500
     45 H10          2.4360    -3.5650    -2.4790 h1         1 MOL       0.094700
     46 H11          4.8710    -1.9740    -1.4910 hc         1 MOL       0.080700
     47 H12          4.3880    -3.6120    -1.0300 hc         1 MOL       0.080700
     48 H13          5.1540    -1.9060    -4.6850 hc         1 MOL       0.084700
     49 H14          4.1660    -3.3070    -5.0910 hc         1 MOL       0.084700
     50 H15          2.3250    -2.1650    -4.3760 hc         1 MOL       0.090700
     51 H16          1.2720    -0.1520    -3.8410 hn         1 MOL       0.328500
     52 H17          3.2590     1.7930    -3.5150 ho         1 MOL       0.427000
     53 H18          7.9840    -4.6670    -3.3110 h1         1 MOL       0.061450
     54 H19          7.0170    -4.8030    -1.8160 h1         1 MOL       0.061450
     55 H20          5.9710    -6.4820    -3.2690 h1         1 MOL       0.061450
     56 H21          6.0780    -5.3920    -4.6800 h1         1 MOL       0.061450
     57 H22          1.8830     0.0900     0.4610 ha         1 MOL       0.151500
     58 H23          0.5910     1.0940     2.2970 ha         1 MOL       0.150500
     59 H24         -2.7900     3.5000     1.9420 ha         1 MOL       0.143000
     60 H25         -2.7200     5.9450     2.0640 ha         1 MOL       0.137000
     61 H26         -3.5300     7.1120     4.1040 ha         1 MOL       0.136000
     62 H27         -4.4040     5.7970     6.0050 ha         1 MOL       0.151000
@<TRIPOS>BOND
     1     1     2 1   
     2     2     3 ar  
     3     3     4 ar  
     4     4     5 1   
     5     5     6 1   
     6     6     7 1   
     7     7     8 ar  
     8     8     9 ar  
     9     9    10 ar  
    10    10    11 1   
    11    11    12 2   
    12    11    13 1   
    13    13    14 1   
    14    14    15 1   
    15    15    16 1   
    16    16    17 1   
    17    17    18 1   
    18    18    19 1   
    19    19    20 2   
    20    19    21 1   
    21    21    22 1   
    22    16    23 1   
    23    23    24 1   
    24    24    25 1   
    25    25    26 1   
    26    10    27 ar  
    27    27    28 ar  
    28     4    29 ar  
    29    29    30 ar  
    30    30    31 ar  
    31    31    32 ar  
    32    32    33 ar  
    33    33    34 ar  
    34    34    35 ar  
    35    35     2 ar  
    36    28     7 ar  
    37    34    29 ar  
    38    18    14 1   
    39    26    16 1   
    40     1    36 1   
    41     1    37 1   
    42     1    38 1   
    43     3    39 1   
    44     5    40 1   
    45     5    41 1   
    46     8    42 1   
    47     9    43 1   
    48    13    44 1   
    49    14    45 1   
    50    15    46 1   
    51    15    47 1   
    52    17    48 1   
    53    17    49 1   
    54    18    50 1   
    55    21    51 1   
    56    22    52 1   
    57    24    53 1   
    58    24    54 1   
    59    25    55 1   
    60    25    56 1   
    61    27    57 1   
    62    28    58 1   
    63    30    59 1   
    64    31    60 1   
    65    32    61 1   
    66    33    62 1   
@<TRIPOS>SUBSTRUCTURE
     1 MOL         1 TEMP              0 ****  ****    0 ROOT
