
     RDKit          3D

 62 66  0  0  0  0  0  0  0  0999 V2000
   -5.1806    1.2343    7.3788 C   0  0  0  0  0  0  0  0  0  0  0  0
   -4.6512    1.9085    6.1488 C   0  0  0  0  0  0  0  0  0  0  0  0
   -4.2409    1.1530    5.0607 C   0  0  0  0  0  0  0  0  0  0  0  0
   -3.7507    1.8030    3.9211 C   0  0  0  0  0  0  0  0  0  0  0  0
   -3.3188    0.9658    2.7389 C   0  0  0  0  0  0  0  0  0  0  0  0
   -1.8947    0.9775    2.6754 O   0  0  0  0  0  0  0  0  0  0  0  0
   -1.3101    0.3518    1.6108 C   0  0  0  0  0  0  0  0  0  0  0  0
   -1.9674   -0.3916    0.6305 C   0  0  0  0  0  0  0  0  0  0  0  0
   -1.2380   -0.9802   -0.4091 C   0  0  0  0  0  0  0  0  0  0  0  0
    0.1535   -0.8395   -0.4685 C   0  0  0  0  0  0  0  0  0  0  0  0
    0.8801   -1.4798   -1.5963 C   0  0  0  0  0  0  0  0  0  0  0  0
    0.3291   -1.6321   -2.6823 O   0  0  0  0  0  0  0  0  0  0  0  0
    2.1806   -1.8698   -1.3559 N   0  0  0  0  0  0  0  0  0  0  0  0
    2.9598   -2.6103   -2.3334 C   0  0  2  0  0  0  0  0  0  0  0  0
    4.3798   -2.8864   -1.8515 C   0  0  0  0  0  0  0  0  0  0  0  0
    5.0514   -3.4209   -3.1084 C   0  0  0  0  0  0  0  0  0  0  0  0
    4.4441   -2.6311   -4.2726 C   0  0  0  0  0  0  0  0  0  0  0  0
    3.1736   -1.9611   -3.7127 C   0  0  2  0  0  0  0  0  0  0  0  0
    3.3563   -0.4549   -3.6180 C   0  0  0  0  0  0  0  0  0  0  0  0
    4.4294    0.0967   -3.3790 O   0  0  0  0  0  0  0  0  0  0  0  0
    2.2033    0.2645   -3.8021 N   0  0  0  0  0  0  0  0  0  0  0  0
    2.3032    1.6684   -3.7012 O   0  0  0  0  0  0  0  0  0  0  0  0
    6.4679   -3.2625   -3.0527 O   0  0  0  0  0  0  0  0  0  0  0  0
    6.9795   -4.5838   -2.8883 C   0  0  0  0  0  0  0  0  0  0  0  0
    5.9615   -5.4378   -3.5922 C   0  0  0  0  0  0  0  0  0  0  0  0
    4.7229   -4.8135   -3.2521 O   0  0  0  0  0  0  0  0  0  0  0  0
    0.8118   -0.0832    0.5055 C   0  0  0  0  0  0  0  0  0  0  0  0
    0.0782    0.5020    1.5415 C   0  0  0  0  0  0  0  0  0  0  0  0
   -3.6666    3.2183    3.9220 C   0  0  0  0  0  0  0  0  0  0  0  0
   -3.1626    3.9837    2.8423 C   0  0  0  0  0  0  0  0  0  0  0  0
   -3.1128    5.3760    2.9024 C   0  0  0  0  0  0  0  0  0  0  0  0
   -3.5633    6.0274    4.0406 C   0  0  0  0  0  0  0  0  0  0  0  0
   -4.0561    5.2812    5.1126 C   0  0  0  0  0  0  0  0  0  0  0  0
   -4.1147    3.8944    5.0793 C   0  0  0  0  0  0  0  0  0  0  0  0
   -4.5981    3.2574    6.1584 N   0  0  0  0  0  0  0  0  0  0  0  0
   -6.0706    0.6462    7.1343 H   0  0  0  0  0  0  0  0  0  0  0  0
   -5.4578    1.9717    8.1392 H   0  0  0  0  0  0  0  0  0  0  0  0
   -4.4190    0.5746    7.8059 H   0  0  0  0  0  0  0  0  0  0  0  0
   -4.3005    0.0694    5.1023 H   0  0  0  0  0  0  0  0  0  0  0  0
   -3.7659    1.3752    1.8242 H   0  0  0  0  0  0  0  0  0  0  0  0
   -3.6748   -0.0649    2.8620 H   0  0  0  0  0  0  0  0  0  0  0  0
   -3.0428   -0.5357    0.6396 H   0  0  0  0  0  0  0  0  0  0  0  0
   -1.7604   -1.5535   -1.1731 H   0  0  0  0  0  0  0  0  0  0  0  0
    2.5423   -1.8084   -0.4120 H   0  0  0  0  0  0  0  0  0  0  0  0
    2.4358   -3.5653   -2.4787 H   0  0  0  0  0  0  0  0  0  0  0  0
    4.8712   -1.9743   -1.4912 H   0  0  0  0  0  0  0  0  0  0  0  0
    4.3883   -3.6120   -1.0305 H   0  0  0  0  0  0  0  0  0  0  0  0
    5.1536   -1.9056   -4.6854 H   0  0  0  0  0  0  0  0  0  0  0  0
    4.1663   -3.3066   -5.0910 H   0  0  0  0  0  0  0  0  0  0  0  0
    2.3247   -2.1654   -4.3764 H   0  0  0  0  0  0  0  0  0  0  0  0
    1.2722   -0.1520   -3.8415 H   0  0  0  0  0  0  0  0  0  0  0  0
    3.2593    1.7926   -3.5148 H   0  0  0  0  0  0  0  0  0  0  0  0
    7.9838   -4.6667   -3.3107 H   0  0  0  0  0  0  0  0  0  0  0  0
    7.0169   -4.8028   -1.8156 H   0  0  0  0  0  0  0  0  0  0  0  0
    5.9709   -6.4816   -3.2693 H   0  0  0  0  0  0  0  0  0  0  0  0
    6.0784   -5.3919   -4.6804 H   0  0  0  0  0  0  0  0  0  0  0  0
    1.8830    0.0905    0.4611 H   0  0  0  0  0  0  0  0  0  0  0  0
    0.5913    1.0942    2.2969 H   0  0  0  0  0  0  0  0  0  0  0  0
   -2.7902    3.5003    1.9422 H   0  0  0  0  0  0  0  0  0  0  0  0
   -2.7196    5.9451    2.0641 H   0  0  0  0  0  0  0  0  0  0  0  0
   -3.5300    7.1117    4.1035 H   0  0  0  0  0  0  0  0  0  0  0  0
   -4.4035    5.7968    6.0051 H   0  0  0  0  0  0  0  0  0  0  0  0
  1  2  1  0
  2  3  2  0
  3  4  1  0
  4  5  1  0
  5  6  1  0
  6  7  1  0
  7  8  2  0
  8  9  1  0
  9 10  2  0
 10 11  1  0
 11 12  2  0
 11 13  1  0
 13 14  1  0
 14 15  1  0
 15 16  1  0
 16 17  1  0
 17 18  1  0
 18 19  1  0
 19 20  2  0
 19 21  1  0
 21 22  1  0
 16 23  1  0
 23 24  1  0
 24 25  1  0
 25 26  1  0
 10 27  1  0
 27 28  2  0
  4 29  2  0
 29 30  1  0
 30 31  2  0
 31 32  1  0
 32 33  2  0
 33 34  1  0
 34 35  2  0
 35  2  1  0
 28  7  1  0
 34 29  1  0
 18 14  1  0
 26 16  1  0
  1 36  1  0
  1 37  1  0
  1 38  1  0
  3 39  1  0
  5 40  1  0
  5 41  1  0
  8 42  1  0
  9 43  1  0
 13 44  1  0
 14 45  1  6
 15 46  1  0
 15 47  1  0
 17 48  1  0
 17 49  1  0
 18 50  1  6
 21 51  1  0
 22 52  1  0
 24 53  1  0
 24 54  1  0
 25 55  1  0
 25 56  1  0
 27 57  1  0
 28 58  1  0
 30 59  1  0
 31 60  1  0
 32 61  1  0
 33 62  1  0
M  END
$$$$
