@<TRIPOS>MOLECULE
MOL
   30    31     1     0     0
SMALL
bcc


@<TRIPOS>ATOM
      1 C1           1.4830     1.7710     1.3910 c3         1 MOL      -0.086100
      2 C2           0.3790     0.7250     1.3570 c3         1 MOL      -0.139700
      3 C3           0.8550    -0.5740     0.7520 ca         1 MOL       0.528600
      4 N1           1.4020    -1.4400     1.6370 nb         1 MOL      -0.788000
      5 C4           1.8820    -2.5870     1.1580 ca         1 MOL       0.905900
      6 N2           2.4370    -3.4570     2.0490 nv         1 MOL      -0.927500
      7 N3           1.8620    -2.9430    -0.1250 nb         1 MOL      -0.822000
      8 C5           1.3060    -2.0810    -0.9910 ca         1 MOL       0.723200
      9 N4           1.3500    -2.4850    -2.3150 nv         1 MOL      -0.946500
     10 C6           0.7800    -0.8450    -0.6130 cp         1 MOL      -0.399600
     11 C7           0.1950     0.0850    -1.5900 cp         1 MOL      -0.014000
     12 C8          -1.1960     0.1500    -1.7750 ca         1 MOL      -0.118000
     13 C9          -1.7520     1.0290    -2.7080 ca         1 MOL      -0.128000
     14 C10         -0.9200     1.8470    -3.4690 ca         1 MOL       0.015400
     15 Cl1         -1.6040     2.9290    -4.6190 cl         1 MOL      -0.094400
     16 C11          0.4620     1.7920    -3.3070 ca         1 MOL      -0.128000
     17 C12          1.0160     0.9130    -2.3730 ca         1 MOL      -0.118000
     18 H1           1.1170     2.6910     1.8590 hc         1 MOL       0.040367
     19 H2           1.8320     2.0200     0.3840 hc         1 MOL       0.040367
     20 H3           2.3450     1.4180     1.9660 hc         1 MOL       0.040367
     21 H4          -0.4980     1.1140     0.8300 hc         1 MOL       0.061200
     22 H5           0.0430     0.5310     2.3830 hc         1 MOL       0.061200
     23 H6           2.4690    -3.1830     3.0140 hn         1 MOL       0.426300
     24 H7           2.8190    -4.3150     1.6940 hn         1 MOL       0.426300
     25 H8           1.7630    -3.4000    -2.4430 hn         1 MOL       0.426300
     26 H9           0.5990    -2.2110    -2.9310 hn         1 MOL       0.426300
     27 H10         -1.8570    -0.4860    -1.1880 ha         1 MOL       0.145500
     28 H11         -2.8310     1.0700    -2.8360 ha         1 MOL       0.148000
     29 H12          1.1130     2.4260    -3.9020 ha         1 MOL       0.148000
     30 H13          2.0990     0.8730    -2.2590 ha         1 MOL       0.145500
@<TRIPOS>BOND
     1     1     2 1   
     2     2     3 1   
     3     3     4 ar  
     4     4     5 ar  
     5     5     6 1   
     6     5     7 ar  
     7     7     8 ar  
     8     8     9 1   
     9     8    10 ar  
    10    10    11 1   
    11    11    12 ar  
    12    12    13 ar  
    13    13    14 ar  
    14    14    15 1   
    15    14    16 ar  
    16    16    17 ar  
    17    10     3 ar  
    18    17    11 ar  
    19     1    18 1   
    20     1    19 1   
    21     1    20 1   
    22     2    21 1   
    23     2    22 1   
    24     6    23 1   
    25     6    24 1   
    26     9    25 1   
    27     9    26 1   
    28    12    27 1   
    29    13    28 1   
    30    16    29 1   
    31    17    30 1   
@<TRIPOS>SUBSTRUCTURE
     1 MOL         1 TEMP              0 ****  ****    0 ROOT
