
     RDKit          3D

 30 31  0  0  0  0  0  0  0  0999 V2000
    1.4827    1.7711    1.3905 C   0  0  0  0  0  0  0  0  0  0  0  0
    0.3786    0.7250    1.3567 C   0  0  0  0  0  0  0  0  0  0  0  0
    0.8549   -0.5736    0.7517 C   0  0  0  0  0  0  0  0  0  0  0  0
    1.4020   -1.4402    1.6365 N   0  0  0  0  0  0  0  0  0  0  0  0
    1.8820   -2.5873    1.1576 C   0  0  0  0  0  0  0  0  0  0  0  0
    2.4372   -3.4567    2.0486 N   0  0  0  0  0  0  0  0  0  0  0  0
    1.8617   -2.9431   -0.1253 N   0  0  0  0  0  0  0  0  0  0  0  0
    1.3055   -2.0814   -0.9905 C   0  0  0  0  0  0  0  0  0  0  0  0
    1.3501   -2.4854   -2.3154 N   0  0  0  0  0  0  0  0  0  0  0  0
    0.7800   -0.8446   -0.6133 C   0  0  0  0  0  0  0  0  0  0  0  0
    0.1953    0.0845   -1.5898 C   0  0  0  0  0  0  0  0  0  0  0  0
   -1.1961    0.1503   -1.7747 C   0  0  0  0  0  0  0  0  0  0  0  0
   -1.7521    1.0294   -2.7083 C   0  0  0  0  0  0  0  0  0  0  0  0
   -0.9203    1.8474   -3.4692 C   0  0  0  0  0  0  0  0  0  0  0  0
   -1.6042    2.9288   -4.6187 Cl  0  0  0  0  0  0  0  0  0  0  0  0
    0.4616    1.7922   -3.3068 C   0  0  0  0  0  0  0  0  0  0  0  0
    1.0159    0.9129   -2.3727 C   0  0  0  0  0  0  0  0  0  0  0  0
    1.1173    2.6907    1.8585 H   0  0  0  0  0  0  0  0  0  0  0  0
    1.8323    2.0202    0.3839 H   0  0  0  0  0  0  0  0  0  0  0  0
    2.3451    1.4177    1.9660 H   0  0  0  0  0  0  0  0  0  0  0  0
   -0.4980    1.1142    0.8296 H   0  0  0  0  0  0  0  0  0  0  0  0
    0.0430    0.5310    2.3834 H   0  0  0  0  0  0  0  0  0  0  0  0
    2.4688   -3.1832    3.0143 H   0  0  0  0  0  0  0  0  0  0  0  0
    2.8186   -4.3153    1.6944 H   0  0  0  0  0  0  0  0  0  0  0  0
    1.7629   -3.4001   -2.4432 H   0  0  0  0  0  0  0  0  0  0  0  0
    0.5991   -2.2107   -2.9311 H   0  0  0  0  0  0  0  0  0  0  0  0
   -1.8571   -0.4859   -1.1879 H   0  0  0  0  0  0  0  0  0  0  0  0
   -2.8307    1.0696   -2.8358 H   0  0  0  0  0  0  0  0  0  0  0  0
    1.1131    2.4261   -3.9025 H   0  0  0  0  0  0  0  0  0  0  0  0
    2.0985    0.8726   -2.2590 H   0  0  0  0  0  0  0  0  0  0  0  0
  1  2  1  0
  2  3  1  0
  3  4  2  0
  4  5  1  0
  5  6  1  0
  5  7  2  0
  7  8  1  0
  8  9  1  0
  8 10  2  0
 10 11  1  0
 11 12  2  0
 12 13  1  0
 13 14  2  0
 14 15  1  0
 14 16  1  0
 16 17  2  0
 10  3  1  0
 17 11  1  0
  1 18  1  0
  1 19  1  0
  1 20  1  0
  2 21  1  0
  2 22  1  0
  6 23  1  0
  6 24  1  0
  9 25  1  0
  9 26  1  0
 12 27  1  0
 13 28  1  0
 16 29  1  0
 17 30  1  0
M  END
$$$$
