
     RDKit          3D

 54 56  0  0  0  0  0  0  0  0999 V2000
   -2.1533   -0.2524   -0.4408 O   0  0  0  0  0  0  0  0  0  0  0  0
   -1.7725    0.8649   -0.1339 C   0  0  0  0  0  0  0  0  0  0  0  0
   -0.5562    1.5295   -0.6669 C   0  0  0  0  0  0  0  0  0  0  0  0
    0.1678    1.0134   -1.6778 C   0  0  0  0  0  0  0  0  0  0  0  0
    1.3267    1.6979   -2.3097 C   0  0  0  0  0  0  0  0  0  0  0  0
    1.3000    3.1049   -2.4106 C   0  0  0  0  0  0  0  0  0  0  0  0
    2.3121    3.8340   -3.0621 C   0  0  0  0  0  0  0  0  0  0  0  0
    3.4049    3.2225   -3.6772 C   0  0  0  0  0  0  0  0  0  0  0  0
    4.3322    3.8651   -4.2884 O   0  0  0  0  0  0  0  0  0  0  0  0
    3.3899    1.8052   -3.5752 C   0  0  0  0  0  0  0  0  0  0  0  0
    4.4670    1.1927   -4.2060 O   0  0  0  0  0  0  0  0  0  0  0  0
    2.4053    1.0194   -2.9153 C   0  0  0  0  0  0  0  0  0  0  0  0
    2.5733   -0.4528   -2.9770 C   0  0  0  0  0  0  0  0  0  0  0  0
    2.5213   -1.3019   -1.9367 C   0  0  0  0  0  0  0  0  0  0  0  0
    2.8131   -2.7452   -2.0470 C   0  0  0  0  0  0  0  0  0  0  0  0
    2.0740   -3.6614   -1.2909 C   0  0  0  0  0  0  0  0  0  0  0  0
    2.3606   -5.0435   -1.3339 C   0  0  0  0  0  0  0  0  0  0  0  0
    3.3948   -5.5873   -2.1122 C   0  0  0  0  0  0  0  0  0  0  0  0
    3.6797   -6.8371   -2.1642 O   0  0  0  0  0  0  0  0  0  0  0  0
    4.1138   -4.6156   -2.8456 C   0  0  0  0  0  0  0  0  0  0  0  0
    5.1483   -5.0988   -3.6217 O   0  0  0  0  0  0  0  0  0  0  0  0
    3.8577   -3.2411   -2.8298 C   0  0  0  0  0  0  0  0  0  0  0  0
   -2.3481    1.7211    0.7505 O   0  0  0  0  0  0  0  0  0  0  0  0
   -3.6869    1.3730    1.2045 C   0  0  0  0  0  0  0  0  0  0  0  0
   -4.1685    2.4225    2.2253 C   0  0  0  0  0  0  0  0  0  0  0  0
   -3.7613    2.2542    3.6805 C   0  0  0  0  0  0  0  0  0  0  0  0
   -2.5941    1.6068    4.0936 C   0  0  0  0  0  0  0  0  0  0  0  0
   -2.2486    1.5290    5.4634 C   0  0  0  0  0  0  0  0  0  0  0  0
   -3.0255    2.0924    6.4906 C   0  0  0  0  0  0  0  0  0  0  0  0
   -2.7314    2.0392    7.7387 O   0  0  0  0  0  0  0  0  0  0  0  0
   -4.1844    2.7432    6.0169 C   0  0  0  0  0  0  0  0  0  0  0  0
   -4.9837    3.3237    6.9809 O   0  0  0  0  0  0  0  0  0  0  0  0
   -4.5578    2.8384    4.6745 C   0  0  0  0  0  0  0  0  0  0  0  0
   -4.7209    1.5224    0.0475 C   0  0  0  0  0  0  0  0  0  0  0  0
   -4.4934    2.4365   -0.8019 O   0  0  0  0  0  0  0  0  0  0  0  0
   -5.7255    0.7490    0.1115 O   0  0  0  0  0  0  0  0  0  0  0  0
   -0.3164    2.4815   -0.2103 H   0  0  0  0  0  0  0  0  0  0  0  0
   -0.1098    0.0533   -2.1077 H   0  0  0  0  0  0  0  0  0  0  0  0
    0.4667    3.6737   -2.0062 H   0  0  0  0  0  0  0  0  0  0  0  0
    2.2281    4.9183   -3.1017 H   0  0  0  0  0  0  0  0  0  0  0  0
    4.9214    2.0104   -4.5226 H   0  0  0  0  0  0  0  0  0  0  0  0
    2.8367   -0.8181   -3.9673 H   0  0  0  0  0  0  0  0  0  0  0  0
    2.2792   -0.9424   -0.9408 H   0  0  0  0  0  0  0  0  0  0  0  0
    1.2569   -3.3182   -0.6617 H   0  0  0  0  0  0  0  0  0  0  0  0
    1.7513   -5.7161   -0.7330 H   0  0  0  0  0  0  0  0  0  0  0  0
    5.0367   -6.0541   -3.3945 H   0  0  0  0  0  0  0  0  0  0  0  0
    4.4858   -2.5790   -3.4150 H   0  0  0  0  0  0  0  0  0  0  0  0
   -3.6950    0.3589    1.6205 H   0  0  0  0  0  0  0  0  0  0  0  0
   -3.8127    3.4155    1.9176 H   0  0  0  0  0  0  0  0  0  0  0  0
   -5.2669    2.4575    2.2153 H   0  0  0  0  0  0  0  0  0  0  0  0
   -1.9253    1.1551    3.3665 H   0  0  0  0  0  0  0  0  0  0  0  0
   -1.3301    1.0099    5.7323 H   0  0  0  0  0  0  0  0  0  0  0  0
   -4.4336    3.0655    7.7611 H   0  0  0  0  0  0  0  0  0  0  0  0
   -5.4668    3.3700    4.4172 H   0  0  0  0  0  0  0  0  0  0  0  0
  1  2  2  0
  2  3  1  0
  3  4  2  0
  4  5  1  0
  5  6  2  0
  6  7  1  0
  7  8  2  0
  8  9  1  0
  8 10  1  0
 10 11  1  0
 10 12  2  0
 12 13  1  0
 13 14  2  0
 14 15  1  0
 15 16  2  0
 16 17  1  0
 17 18  2  0
 18 19  1  0
 18 20  1  0
 20 21  1  0
 20 22  2  0
  2 23  1  0
 23 24  1  0
 24 25  1  0
 25 26  1  0
 26 27  2  0
 27 28  1  0
 28 29  2  0
 29 30  1  0
 29 31  1  0
 31 32  1  0
 31 33  2  0
 24 34  1  0
 34 35  2  0
 34 36  1  0
 12  5  1  0
 22 15  1  0
 33 26  1  0
  3 37  1  0
  4 38  1  0
  6 39  1  0
  7 40  1  0
 11 41  1  0
 13 42  1  0
 14 43  1  0
 16 44  1  0
 17 45  1  0
 21 46  1  0
 22 47  1  0
 24 48  1  0
 25 49  1  0
 25 50  1  0
 27 51  1  0
 28 52  1  0
 32 53  1  0
 33 54  1  0
M  CHG  4   9  -1  19  -1  30  -1  36  -1
M  END
$$$$
