@<TRIPOS>MOLECULE
MOL
   54    56     1     0     0
SMALL
bcc


@<TRIPOS>ATOM
      1 O1          -2.1530    -0.2520    -0.4410 o          1 MOL      -0.599000
      2 C1          -1.7720     0.8650    -0.1340 c          1 MOL       0.640300
      3 C2          -0.5560     1.5300    -0.6670 ce         1 MOL      -0.296200
      4 C3           0.1680     1.0130    -1.6780 cf         1 MOL       0.022800
      5 C4           1.3270     1.6980    -2.3100 ca         1 MOL      -0.219800
      6 C5           1.3000     3.1050    -2.4110 ca         1 MOL      -0.047000
      7 C6           2.3120     3.8340    -3.0620 ca         1 MOL      -0.350000
      8 C7           3.4050     3.2230    -3.6770 ca         1 MOL       0.520700
      9 O2           4.3320     3.8650    -4.2880 o          1 MOL      -0.852700
     10 C8           3.3900     1.8050    -3.5750 ca         1 MOL      -0.085900
     11 O3           4.4670     1.1930    -4.2060 oh         1 MOL      -0.538100
     12 C9           2.4050     1.0190    -2.9150 ca         1 MOL       0.020200
     13 C10          2.5730    -0.4530    -2.9770 ce         1 MOL      -0.141200
     14 C11          2.5210    -1.3020    -1.9370 cf         1 MOL      -0.071200
     15 C12          2.8130    -2.7450    -2.0470 ca         1 MOL      -0.194800
     16 C13          2.0740    -3.6610    -1.2910 ca         1 MOL      -0.061000
     17 C14          2.3610    -5.0430    -1.3340 ca         1 MOL      -0.338000
     18 C15          3.3950    -5.5870    -2.1120 ca         1 MOL       0.512700
     19 O4           3.6800    -6.8370    -2.1640 o          1 MOL      -0.866700
     20 C16          4.1140    -4.6160    -2.8460 ca         1 MOL      -0.101900
     21 O5           5.1480    -5.0990    -3.6220 oh         1 MOL      -0.560100
     22 C17          3.8580    -3.2410    -2.8300 ca         1 MOL      -0.077000
     23 O6          -2.3480     1.7210     0.7500 os         1 MOL      -0.429900
     24 C18         -3.6870     1.3730     1.2040 c3         1 MOL       0.042100
     25 C19         -4.1680     2.4220     2.2250 c3         1 MOL      -0.018100
     26 C20         -3.7610     2.2540     3.6800 ca         1 MOL      -0.189300
     27 C21         -2.5940     1.6070     4.0940 ca         1 MOL      -0.073000
     28 C22         -2.2490     1.5290     5.4630 ca         1 MOL      -0.334000
     29 C23         -3.0260     2.0920     6.4910 ca         1 MOL       0.500700
     30 O7          -2.7310     2.0390     7.7390 o          1 MOL      -0.893700
     31 C24         -4.1840     2.7430     6.0170 ca         1 MOL      -0.106900
     32 O8          -4.9840     3.3240     6.9810 oh         1 MOL      -0.569100
     33 C25         -4.5580     2.8380     4.6750 ca         1 MOL      -0.089000
     34 C26         -4.7210     1.5220     0.0480 c          1 MOL       0.925600
     35 O9          -4.4930     2.4370    -0.8020 o          1 MOL      -0.856800
     36 O10         -5.7260     0.7490     0.1120 o          1 MOL      -0.856800
     37 H1          -0.3160     2.4820    -0.2100 ha         1 MOL       0.133000
     38 H2          -0.1100     0.0530    -2.1080 ha         1 MOL       0.134000
     39 H3           0.4670     3.6740    -2.0060 ha         1 MOL       0.099000
     40 H4           2.2280     4.9180    -3.1020 ha         1 MOL       0.093000
     41 H5           4.9210     2.0100    -4.5230 ho         1 MOL       0.404000
     42 H6           2.8370    -0.8180    -3.9670 ha         1 MOL       0.115000
     43 H7           2.2790    -0.9420    -0.9410 ha         1 MOL       0.106000
     44 H8           1.2570    -3.3180    -0.6620 ha         1 MOL       0.095000
     45 H9           1.7510    -5.7160    -0.7330 ha         1 MOL       0.093000
     46 H10          5.0370    -6.0540    -3.3940 ho         1 MOL       0.405000
     47 H11          4.4860    -2.5790    -3.4150 ha         1 MOL       0.116000
     48 H12         -3.6950     0.3590     1.6210 h1         1 MOL       0.069700
     49 H13         -3.8130     3.4160     1.9180 hc         1 MOL       0.031700
     50 H14         -5.2670     2.4580     2.2150 hc         1 MOL       0.031700
     51 H15         -1.9250     1.1550     3.3660 ha         1 MOL       0.110000
     52 H16         -1.3300     1.0100     5.7320 ha         1 MOL       0.088000
     53 H17         -4.4340     3.0660     7.7610 ho         1 MOL       0.403000
     54 H18         -5.4670     3.3700     4.4170 ha         1 MOL       0.103000
@<TRIPOS>BOND
     1     1     2 2   
     2     2     3 1   
     3     3     4 2   
     4     4     5 1   
     5     5     6 ar  
     6     6     7 ar  
     7     7     8 ar  
     8     8     9 1   
     9     8    10 ar  
    10    10    11 1   
    11    10    12 ar  
    12    12    13 1   
    13    13    14 2   
    14    14    15 1   
    15    15    16 ar  
    16    16    17 ar  
    17    17    18 ar  
    18    18    19 1   
    19    18    20 ar  
    20    20    21 1   
    21    20    22 ar  
    22     2    23 1   
    23    23    24 1   
    24    24    25 1   
    25    25    26 1   
    26    26    27 ar  
    27    27    28 ar  
    28    28    29 ar  
    29    29    30 1   
    30    29    31 ar  
    31    31    32 1   
    32    31    33 ar  
    33    24    34 1   
    34    34    35 1   
    35    34    36 1   
    36    12     5 ar  
    37    22    15 ar  
    38    33    26 ar  
    39     3    37 1   
    40     4    38 1   
    41     6    39 1   
    42     7    40 1   
    43    11    41 1   
    44    13    42 1   
    45    14    43 1   
    46    16    44 1   
    47    17    45 1   
    48    21    46 1   
    49    22    47 1   
    50    24    48 1   
    51    25    49 1   
    52    25    50 1   
    53    27    51 1   
    54    28    52 1   
    55    32    53 1   
    56    33    54 1   
@<TRIPOS>SUBSTRUCTURE
     1 MOL         1 TEMP              0 ****  ****    0 ROOT
