
     RDKit          3D

 21 20  0  0  0  0  0  0  0  0999 V2000
   -1.6932   -1.2157   -0.4570 C   0  0  0  0  0  0  0  0  0  0  0  0
   -0.3731   -0.5692   -0.8420 N   0  0  0  0  0  0  0  0  0  0  0  0
    0.0232    0.4507    0.2243 C   0  0  0  0  0  0  0  0  0  0  0  0
    0.7066   -1.6503   -0.8916 C   0  0  0  0  0  0  0  0  0  0  0  0
   -0.4483    0.0845   -2.2466 C   0  0  0  0  0  0  0  0  0  0  0  0
   -1.4503    1.2451   -2.3738 C   0  0  0  0  0  0  0  0  0  0  0  0
   -1.0333    2.3642   -1.6010 O   0  0  0  0  0  0  0  0  0  0  0  0
   -2.4506   -0.4376   -0.3355 H   0  0  0  0  0  0  0  0  0  0  0  0
   -1.5551   -1.7474    0.4895 H   0  0  0  0  0  0  0  0  0  0  0  0
   -1.9806   -1.9141   -1.2483 H   0  0  0  0  0  0  0  0  0  0  0  0
   -0.8251    1.1086    0.4254 H   0  0  0  0  0  0  0  0  0  0  0  0
    0.8942    1.0081   -0.1315 H   0  0  0  0  0  0  0  0  0  0  0  0
    0.2726   -0.0937    1.1408 H   0  0  0  0  0  0  0  0  0  0  0  0
    0.7639   -2.1328    0.0889 H   0  0  0  0  0  0  0  0  0  0  0  0
    1.6609   -1.1759   -1.1390 H   0  0  0  0  0  0  0  0  0  0  0  0
    0.4293   -2.3803   -1.6579 H   0  0  0  0  0  0  0  0  0  0  0  0
    0.5638    0.4418   -2.4703 H   0  0  0  0  0  0  0  0  0  0  0  0
   -0.7109   -0.7150   -2.9486 H   0  0  0  0  0  0  0  0  0  0  0  0
   -2.4586    0.9557   -2.0677 H   0  0  0  0  0  0  0  0  0  0  0  0
   -1.4915    1.5615   -3.4215 H   0  0  0  0  0  0  0  0  0  0  0  0
   -1.6056    3.1185   -1.8425 H   0  0  0  0  0  0  0  0  0  0  0  0
  1  2  1  0
  2  3  1  0
  2  4  1  0
  2  5  1  0
  5  6  1  0
  6  7  1  0
  1  8  1  0
  1  9  1  0
  1 10  1  0
  3 11  1  0
  3 12  1  0
  3 13  1  0
  4 14  1  0
  4 15  1  0
  4 16  1  0
  5 17  1  0
  5 18  1  0
  6 19  1  0
  6 20  1  0
  7 21  1  0
M  CHG  1   2   1
M  END
$$$$
