@<TRIPOS>MOLECULE
MOL
   21    20     1     0     0
SMALL
bcc


@<TRIPOS>ATOM
      1 C1          -1.6930    -1.2160    -0.4570 c3         1 MOL       0.087100
      2 N1          -0.3730    -0.5690    -0.8420 n4         1 MOL      -0.593800
      3 C2           0.0230     0.4510     0.2240 c3         1 MOL       0.087100
      4 C3           0.7070    -1.6500    -0.8920 c3         1 MOL       0.087100
      5 C4          -0.4480     0.0850    -2.2470 c3         1 MOL       0.106800
      6 C5          -1.4500     1.2450    -2.3740 c3         1 MOL       0.117400
      7 O1          -1.0330     2.3640    -1.6010 oh         1 MOL      -0.625800
      8 H1          -2.4510    -0.4380    -0.3360 hx         1 MOL       0.104033
      9 H2          -1.5550    -1.7470     0.4890 hx         1 MOL       0.104033
     10 H3          -1.9810    -1.9140    -1.2480 hx         1 MOL       0.104033
     11 H4          -0.8250     1.1090     0.4250 hx         1 MOL       0.104033
     12 H5           0.8940     1.0080    -0.1320 hx         1 MOL       0.104033
     13 H6           0.2730    -0.0940     1.1410 hx         1 MOL       0.104033
     14 H7           0.7640    -2.1330     0.0890 hx         1 MOL       0.104033
     15 H8           1.6610    -1.1760    -1.1390 hx         1 MOL       0.104033
     16 H9           0.4290    -2.3800    -1.6580 hx         1 MOL       0.104033
     17 H10          0.5640     0.4420    -2.4700 hx         1 MOL       0.105200
     18 H11         -0.7110    -0.7150    -2.9490 hx         1 MOL       0.105200
     19 H12         -2.4590     0.9560    -2.0680 h1         1 MOL       0.069700
     20 H13         -1.4920     1.5620    -3.4210 h1         1 MOL       0.069700
     21 H14         -1.6060     3.1190    -1.8430 ho         1 MOL       0.448000
@<TRIPOS>BOND
     1     1     2 1   
     2     2     3 1   
     3     2     4 1   
     4     2     5 1   
     5     5     6 1   
     6     6     7 1   
     7     1     8 1   
     8     1     9 1   
     9     1    10 1   
    10     3    11 1   
    11     3    12 1   
    12     3    13 1   
    13     4    14 1   
    14     4    15 1   
    15     4    16 1   
    16     5    17 1   
    17     5    18 1   
    18     6    19 1   
    19     6    20 1   
    20     7    21 1   
@<TRIPOS>SUBSTRUCTURE
     1 MOL         1 TEMP              0 ****  ****    0 ROOT
