
     RDKit          3D

 79 82  0  0  0  0  0  0  0  0999 V2000
   -0.3392    5.9354    6.6382 C   0  0  0  0  0  0  0  0  0  0  0  0
    0.1532    5.2847    5.3431 C   0  0  0  0  0  0  0  0  0  0  0  0
    1.3889    6.0257    4.8306 C   0  0  0  0  0  0  0  0  0  0  0  0
   -0.9871    5.2549    4.3077 C   0  0  0  0  0  0  0  0  0  0  0  0
   -0.6249    4.4925    3.0241 C   0  0  0  0  0  0  0  0  0  0  0  0
   -1.8363    4.3350    2.0913 C   0  0  1  0  0  0  0  0  0  0  0  0
   -2.3477    5.6325    1.7237 O   0  0  0  0  0  0  0  0  0  0  0  0
   -1.5768    3.5177    0.7744 C   0  0  2  0  0  0  0  0  0  0  0  0
   -0.4898    4.1836   -0.0786 C   0  0  0  0  0  0  0  0  0  0  0  0
   -2.7958    3.6064    0.0149 O   0  0  0  0  0  0  0  0  0  0  0  0
   -1.2604    2.0203    1.0753 C   0  0  1  0  0  0  0  0  0  0  0  0
   -2.4110    1.3129    1.8604 C   0  0  0  0  0  0  0  0  0  0  0  0
   -2.4241   -0.1670    1.4337 C   0  0  0  0  0  0  0  0  0  0  0  0
   -1.0926   -0.3463    0.7059 C   0  0  1  0  0  0  0  0  0  0  0  0
   -0.0950   -0.4257    1.7438 O   0  0  0  0  0  0  0  0  0  0  0  0
   -0.8201   -1.5289   -0.1925 C   0  0  0  0  0  0  0  0  0  0  0  0
   -1.7308   -2.4748   -0.4795 C   0  0  0  0  0  0  0  0  0  0  0  0
   -1.4418   -3.5507   -1.4623 C   0  0  0  0  0  0  0  0  0  0  0  0
   -2.2382   -4.4791   -1.5850 O   0  0  0  0  0  0  0  0  0  0  0  0
   -0.1932   -3.3951   -2.3437 C   0  0  2  0  0  0  0  0  0  0  0  0
   -0.5353   -2.4090   -3.3306 O   0  0  0  0  0  0  0  0  0  0  0  0
    0.1476   -4.7088   -3.0813 C   0  0  0  0  0  0  0  0  0  0  0  0
    1.4420   -4.6261   -3.8963 C   0  0  1  0  0  0  0  0  0  0  0  0
    1.2399   -3.8327   -5.0747 O   0  0  0  0  0  0  0  0  0  0  0  0
    2.6154   -4.0233   -3.1055 C   0  0  1  0  0  0  0  0  0  0  0  0
    3.6954   -3.7571   -4.0031 O   0  0  0  0  0  0  0  0  0  0  0  0
    2.2427   -2.7189   -2.3892 C   0  0  0  0  0  0  0  0  0  0  0  0
    0.9903   -2.8646   -1.4853 C   0  0  2  0  0  0  0  0  0  0  0  0
    1.3401   -3.8830   -0.3485 C   0  0  0  0  0  0  0  0  0  0  0  0
    0.6082   -1.5093   -0.7701 C   0  0  0  0  0  0  0  0  0  0  0  0
    0.8922   -0.1583   -1.5010 C   0  0  1  0  0  0  0  0  0  0  0  0
    0.2620   -0.0254   -2.7678 O   0  0  0  0  0  0  0  0  0  0  0  0
    0.4979    1.0750   -0.6449 C   0  0  0  0  0  0  0  0  0  0  0  0
   -0.9477    0.9993   -0.0769 C   0  0  2  0  0  0  0  0  0  0  0  0
   -1.9810    1.1176   -1.2284 C   0  0  0  0  0  0  0  0  0  0  0  0
   -1.1994    5.3927    7.0442 H   0  0  0  0  0  0  0  0  0  0  0  0
   -0.6416    6.9749    6.4709 H   0  0  0  0  0  0  0  0  0  0  0  0
    0.4471    5.9295    7.4005 H   0  0  0  0  0  0  0  0  0  0  0  0
    0.4440    4.2525    5.5761 H   0  0  0  0  0  0  0  0  0  0  0  0
    1.1390    7.0447    4.5165 H   0  0  0  0  0  0  0  0  0  0  0  0
    2.1541    6.0912    5.6117 H   0  0  0  0  0  0  0  0  0  0  0  0
    1.8404    5.5068    3.9797 H   0  0  0  0  0  0  0  0  0  0  0  0
   -1.2827    6.2815    4.0581 H   0  0  0  0  0  0  0  0  0  0  0  0
   -1.8636    4.7766    4.7637 H   0  0  0  0  0  0  0  0  0  0  0  0
    0.1666    5.0411    2.5028 H   0  0  0  0  0  0  0  0  0  0  0  0
   -0.2278    3.5105    3.2984 H   0  0  0  0  0  0  0  0  0  0  0  0
   -2.6573    3.8642    2.6433 H   0  0  0  0  0  0  0  0  0  0  0  0
   -1.5898    6.2243    1.5729 H   0  0  0  0  0  0  0  0  0  0  0  0
   -0.5057    3.8102   -1.1063 H   0  0  0  0  0  0  0  0  0  0  0  0
    0.5088    4.0308    0.3415 H   0  0  0  0  0  0  0  0  0  0  0  0
   -0.6569    5.2618   -0.1747 H   0  0  0  0  0  0  0  0  0  0  0  0
   -3.1409    4.5090    0.1754 H   0  0  0  0  0  0  0  0  0  0  0  0
   -0.3781    2.0211    1.7294 H   0  0  0  0  0  0  0  0  0  0  0  0
   -2.2289    1.3979    2.9382 H   0  0  0  0  0  0  0  0  0  0  0  0
   -3.3933    1.7541    1.6613 H   0  0  0  0  0  0  0  0  0  0  0  0
   -3.2844   -0.3540    0.7819 H   0  0  0  0  0  0  0  0  0  0  0  0
   -2.5235   -0.8150    2.3115 H   0  0  0  0  0  0  0  0  0  0  0  0
   -0.2865   -1.2261    2.2628 H   0  0  0  0  0  0  0  0  0  0  0  0
   -2.7290   -2.4922   -0.0585 H   0  0  0  0  0  0  0  0  0  0  0  0
   -1.2428   -2.7828   -3.8909 H   0  0  0  0  0  0  0  0  0  0  0  0
   -0.6747   -4.9627   -3.7635 H   0  0  0  0  0  0  0  0  0  0  0  0
    0.2242   -5.5351   -2.3652 H   0  0  0  0  0  0  0  0  0  0  0  0
    1.7268   -5.6234   -4.2516 H   0  0  0  0  0  0  0  0  0  0  0  0
    0.6305   -4.3214   -5.6557 H   0  0  0  0  0  0  0  0  0  0  0  0
    2.9830   -4.7545   -2.3790 H   0  0  0  0  0  0  0  0  0  0  0  0
    3.2725   -3.3586   -4.7922 H   0  0  0  0  0  0  0  0  0  0  0  0
    2.0929   -1.9434   -3.1497 H   0  0  0  0  0  0  0  0  0  0  0  0
    3.1030   -2.3770   -1.7987 H   0  0  0  0  0  0  0  0  0  0  0  0
    0.5382   -3.9735    0.3912 H   0  0  0  0  0  0  0  0  0  0  0  0
    1.5382   -4.8911   -0.7205 H   0  0  0  0  0  0  0  0  0  0  0  0
    2.2386   -3.5612    0.1919 H   0  0  0  0  0  0  0  0  0  0  0  0
    1.2839   -1.4665    0.0981 H   0  0  0  0  0  0  0  0  0  0  0  0
    1.9694   -0.0836   -1.6899 H   0  0  0  0  0  0  0  0  0  0  0  0
    0.0520   -0.9158   -3.1183 H   0  0  0  0  0  0  0  0  0  0  0  0
    1.2137    1.1659    0.1818 H   0  0  0  0  0  0  0  0  0  0  0  0
    0.6154    1.9712   -1.2611 H   0  0  0  0  0  0  0  0  0  0  0  0
   -1.7689    1.9860   -1.8603 H   0  0  0  0  0  0  0  0  0  0  0  0
   -3.0066    1.2246   -0.8621 H   0  0  0  0  0  0  0  0  0  0  0  0
   -1.9888    0.2405   -1.8806 H   0  0  0  0  0  0  0  0  0  0  0  0
  1  2  1  0
  2  3  1  0
  2  4  1  0
  4  5  1  0
  5  6  1  0
  6  7  1  0
  6  8  1  0
  8  9  1  0
  8 10  1  6
  8 11  1  0
 11 12  1  0
 12 13  1  0
 13 14  1  0
 14 15  1  1
 14 16  1  0
 16 17  2  0
 17 18  1  0
 18 19  2  0
 18 20  1  0
 20 21  1  6
 20 22  1  0
 22 23  1  0
 23 24  1  0
 23 25  1  0
 25 26  1  0
 25 27  1  0
 27 28  1  0
 28 29  1  1
 28 30  1  0
 30 31  1  0
 31 32  1  0
 31 33  1  0
 33 34  1  0
 34 35  1  6
 34 11  1  0
 34 14  1  0
 30 16  1  0
 28 20  1  0
  1 36  1  0
  1 37  1  0
  1 38  1  0
  2 39  1  0
  3 40  1  0
  3 41  1  0
  3 42  1  0
  4 43  1  0
  4 44  1  0
  5 45  1  0
  5 46  1  0
  6 47  1  1
  7 48  1  0
  9 49  1  0
  9 50  1  0
  9 51  1  0
 10 52  1  0
 11 53  1  1
 12 54  1  0
 12 55  1  0
 13 56  1  0
 13 57  1  0
 15 58  1  0
 17 59  1  0
 21 60  1  0
 22 61  1  0
 22 62  1  0
 23 63  1  6
 24 64  1  0
 25 65  1  1
 26 66  1  0
 27 67  1  0
 27 68  1  0
 29 69  1  0
 29 70  1  0
 29 71  1  0
 30 72  1  0
 31 73  1  6
 32 74  1  0
 33 75  1  0
 33 76  1  0
 35 77  1  0
 35 78  1  0
 35 79  1  0
M  END
$$$$
