@<TRIPOS>MOLECULE
MOL
   79    82     1     0     0
SMALL
bcc


@<TRIPOS>ATOM
      1 C1          -0.3390     5.9350     6.6380 c3         1 MOL      -0.090100
      2 C2           0.1530     5.2850     5.3430 c3         1 MOL      -0.067700
      3 C3           1.3890     6.0260     4.8310 c3         1 MOL      -0.090100
      4 C4          -0.9870     5.2550     4.3080 c3         1 MOL      -0.078400
      5 C5          -0.6250     4.4920     3.0240 c3         1 MOL      -0.109400
      6 C6          -1.8360     4.3350     2.0910 c3         1 MOL       0.104100
      7 O1          -2.3480     5.6330     1.7240 oh         1 MOL      -0.601800
      8 C7          -1.5770     3.5180     0.7740 c3         1 MOL       0.139800
      9 C8          -0.4900     4.1840    -0.0790 c3         1 MOL      -0.123100
     10 O2          -2.7960     3.6060     0.0150 oh         1 MOL      -0.600800
     11 C9          -1.2600     2.0200     1.0750 c3         1 MOL      -0.043700
     12 C10         -2.4110     1.3130     1.8600 c3         1 MOL      -0.074400
     13 C11         -2.4240    -0.1670     1.4340 c3         1 MOL      -0.094400
     14 C12         -1.0930    -0.3460     0.7060 c3         1 MOL       0.162000
     15 O3          -0.0950    -0.4260     1.7440 oh         1 MOL      -0.596800
     16 C13         -0.8200    -1.5290    -0.1930 c2         1 MOL      -0.050400
     17 C14         -1.7310    -2.4750    -0.4790 ce         1 MOL      -0.238200
     18 C15         -1.4420    -3.5510    -1.4620 c          1 MOL       0.586300
     19 O4          -2.2380    -4.4790    -1.5850 o          1 MOL      -0.520100
     20 C16         -0.1930    -3.3950    -2.3440 c3         1 MOL       0.079800
     21 O5          -0.5350    -2.4090    -3.3310 oh         1 MOL      -0.604800
     22 C17          0.1480    -4.7090    -3.0810 c3         1 MOL      -0.133400
     23 C18          1.4420    -4.6260    -3.8960 c3         1 MOL       0.104100
     24 O6           1.2400    -3.8330    -5.0750 oh         1 MOL      -0.617800
     25 C19          2.6150    -4.0230    -3.1060 c3         1 MOL       0.152100
     26 O7           3.6950    -3.7570    -4.0030 oh         1 MOL      -0.594800
     27 C20          2.2430    -2.7190    -2.3890 c3         1 MOL      -0.115400
     28 C21          0.9900    -2.8650    -1.4850 c3         1 MOL      -0.051000
     29 C22          1.3400    -3.8830    -0.3480 c3         1 MOL      -0.100100
     30 C23          0.6080    -1.5090    -0.7700 c3         1 MOL      -0.060500
     31 C24          0.8920    -0.1580    -1.5010 c3         1 MOL       0.164100
     32 O8           0.2620    -0.0250    -2.7680 oh         1 MOL      -0.611800
     33 C25          0.4980     1.0750    -0.6450 c3         1 MOL      -0.102400
     34 C26         -0.9480     0.9990    -0.0770 c3         1 MOL      -0.023000
     35 C27         -1.9810     1.1180    -1.2280 c3         1 MOL      -0.101100
     36 H1          -1.1990     5.3930     7.0440 hc         1 MOL       0.034200
     37 H2          -0.6420     6.9750     6.4710 hc         1 MOL       0.034200
     38 H3           0.4470     5.9290     7.4010 hc         1 MOL       0.034200
     39 H4           0.4440     4.2530     5.5760 hc         1 MOL       0.045700
     40 H5           1.1390     7.0450     4.5160 hc         1 MOL       0.034200
     41 H6           2.1540     6.0910     5.6120 hc         1 MOL       0.034200
     42 H7           1.8400     5.5070     3.9800 hc         1 MOL       0.034200
     43 H8          -1.2830     6.2820     4.0580 hc         1 MOL       0.048700
     44 H9          -1.8640     4.7770     4.7640 hc         1 MOL       0.048700
     45 H10          0.1670     5.0410     2.5030 hc         1 MOL       0.051700
     46 H11         -0.2280     3.5100     3.2980 hc         1 MOL       0.051700
     47 H12         -2.6570     3.8640     2.6430 h1         1 MOL       0.087700
     48 H13         -1.5900     6.2240     1.5730 ho         1 MOL       0.401000
     49 H14         -0.5060     3.8100    -1.1060 hc         1 MOL       0.044700
     50 H15          0.5090     4.0310     0.3420 hc         1 MOL       0.044700
     51 H16         -0.6570     5.2620    -0.1750 hc         1 MOL       0.044700
     52 H17         -3.1410     4.5090     0.1750 ho         1 MOL       0.416000
     53 H18         -0.3780     2.0210     1.7290 hc         1 MOL       0.064700
     54 H19         -2.2290     1.3980     2.9380 hc         1 MOL       0.055700
     55 H20         -3.3930     1.7540     1.6610 hc         1 MOL       0.055700
     56 H21         -3.2840    -0.3540     0.7820 hc         1 MOL       0.054200
     57 H22         -2.5230    -0.8150     2.3120 hc         1 MOL       0.054200
     58 H23         -0.2860    -1.2260     2.2630 ho         1 MOL       0.403000
     59 H24         -2.7290    -2.4920    -0.0590 ha         1 MOL       0.154000
     60 H25         -1.2430    -2.7830    -3.8910 ho         1 MOL       0.440000
     61 H26         -0.6750    -4.9630    -3.7640 hc         1 MOL       0.072700
     62 H27          0.2240    -5.5350    -2.3650 hc         1 MOL       0.072700
     63 H28          1.7270    -5.6230    -4.2520 h1         1 MOL       0.052700
     64 H29          0.6300    -4.3210    -5.6560 ho         1 MOL       0.416000
     65 H30          2.9830    -4.7550    -2.3790 h1         1 MOL       0.077700
     66 H31          3.2720    -3.3590    -4.7920 ho         1 MOL       0.418000
     67 H32          2.0930    -1.9430    -3.1500 hc         1 MOL       0.070200
     68 H33          3.1030    -2.3770    -1.7990 hc         1 MOL       0.070200
     69 H34          0.5380    -3.9740     0.3910 hc         1 MOL       0.043033
     70 H35          1.5380    -4.8910    -0.7210 hc         1 MOL       0.043033
     71 H36          2.2390    -3.5610     0.1920 hc         1 MOL       0.043033
     72 H37          1.2840    -1.4660     0.0980 hc         1 MOL       0.082700
     73 H38          1.9690    -0.0840    -1.6900 h1         1 MOL       0.069700
     74 H39          0.0520    -0.9160    -3.1180 ho         1 MOL       0.423000
     75 H40          1.2140     1.1660     0.1820 hc         1 MOL       0.062700
     76 H41          0.6150     1.9710    -1.2610 hc         1 MOL       0.062700
     77 H42         -1.7690     1.9860    -1.8600 hc         1 MOL       0.051367
     78 H43         -3.0070     1.2250    -0.8620 hc         1 MOL       0.051367
     79 H44         -1.9890     0.2400    -1.8810 hc         1 MOL       0.051367
@<TRIPOS>BOND
     1     1     2 1   
     2     2     3 1   
     3     2     4 1   
     4     4     5 1   
     5     5     6 1   
     6     6     7 1   
     7     6     8 1   
     8     8     9 1   
     9     8    10 1   
    10     8    11 1   
    11    11    12 1   
    12    12    13 1   
    13    13    14 1   
    14    14    15 1   
    15    14    16 1   
    16    16    17 2   
    17    17    18 1   
    18    18    19 2   
    19    18    20 1   
    20    20    21 1   
    21    20    22 1   
    22    22    23 1   
    23    23    24 1   
    24    23    25 1   
    25    25    26 1   
    26    25    27 1   
    27    27    28 1   
    28    28    29 1   
    29    28    30 1   
    30    30    31 1   
    31    31    32 1   
    32    31    33 1   
    33    33    34 1   
    34    34    35 1   
    35    34    11 1   
    36    34    14 1   
    37    30    16 1   
    38    28    20 1   
    39     1    36 1   
    40     1    37 1   
    41     1    38 1   
    42     2    39 1   
    43     3    40 1   
    44     3    41 1   
    45     3    42 1   
    46     4    43 1   
    47     4    44 1   
    48     5    45 1   
    49     5    46 1   
    50     6    47 1   
    51     7    48 1   
    52     9    49 1   
    53     9    50 1   
    54     9    51 1   
    55    10    52 1   
    56    11    53 1   
    57    12    54 1   
    58    12    55 1   
    59    13    56 1   
    60    13    57 1   
    61    15    58 1   
    62    17    59 1   
    63    21    60 1   
    64    22    61 1   
    65    22    62 1   
    66    23    63 1   
    67    24    64 1   
    68    25    65 1   
    69    26    66 1   
    70    27    67 1   
    71    27    68 1   
    72    29    69 1   
    73    29    70 1   
    74    29    71 1   
    75    30    72 1   
    76    31    73 1   
    77    32    74 1   
    78    33    75 1   
    79    33    76 1   
    80    35    77 1   
    81    35    78 1   
    82    35    79 1   
@<TRIPOS>SUBSTRUCTURE
     1 MOL         1 TEMP              0 ****  ****    0 ROOT
