
     RDKit          3D

 52 53  0  0  0  0  0  0  0  0999 V2000
   -3.9906   -2.8831    3.8711 C   0  0  0  0  0  0  0  0  0  0  0  0
   -4.1798   -1.9414    2.9373 C   0  0  0  0  0  0  0  0  0  0  0  0
   -4.1886   -2.2031    1.4577 C   0  0  0  0  0  0  0  0  0  0  0  0
   -3.1372   -1.4042    0.7278 C   0  0  0  0  0  0  0  0  0  0  0  0
   -3.4634   -0.1885    0.1086 C   0  0  0  0  0  0  0  0  0  0  0  0
   -2.4827    0.5557   -0.5538 C   0  0  0  0  0  0  0  0  0  0  0  0
   -2.8891    1.7235   -1.1487 O   0  0  0  0  0  0  0  0  0  0  0  0
   -2.8296    1.6030   -2.5722 C   0  0  0  0  0  0  0  0  0  0  0  0
   -1.1513    0.1285   -0.5523 C   0  0  0  0  0  0  0  0  0  0  0  0
   -0.1703    0.8636   -1.1583 O   0  0  0  0  0  0  0  0  0  0  0  0
    0.2989    1.9718   -0.3645 C   0  0  0  0  0  0  0  0  0  0  0  0
    0.3673    3.2065   -1.2644 C   0  0  0  0  0  0  0  0  0  0  0  0
    1.6711    1.6836    0.3152 C   0  0  0  0  0  0  0  0  0  0  0  0
    1.4631    0.7481    1.3882 O   0  0  0  0  0  0  0  0  0  0  0  0
    2.8657    1.2093   -0.4893 C   0  0  0  0  0  0  0  0  0  0  0  0
    2.8113    0.8290   -1.8421 C   0  0  0  0  0  0  0  0  0  0  0  0
    3.9168    0.3515   -2.5769 C   0  0  0  0  0  0  0  0  0  0  0  0
    3.8256   -0.0050   -3.7982 O   0  0  0  0  0  0  0  0  0  0  0  0
    5.1268    0.2932   -1.8585 C   0  0  0  0  0  0  0  0  0  0  0  0
    5.2385    0.6670   -0.5137 C   0  0  0  0  0  0  0  0  0  0  0  0
    6.3832    0.6317    0.2416 O   0  0  0  0  0  0  0  0  0  0  0  0
    7.5482    0.1605   -0.4221 C   0  0  0  0  0  0  0  0  0  0  0  0
    4.1062    1.1181    0.1595 C   0  0  0  0  0  0  0  0  0  0  0  0
   -0.8324   -1.1074    0.0190 C   0  0  0  0  0  0  0  0  0  0  0  0
    0.4542   -1.5826    0.0603 O   0  0  0  0  0  0  0  0  0  0  0  0
    0.8658   -2.0735   -1.2206 C   0  0  0  0  0  0  0  0  0  0  0  0
   -1.8096   -1.8544    0.6802 C   0  0  0  0  0  0  0  0  0  0  0  0
   -3.8227   -3.9226    3.6080 H   0  0  0  0  0  0  0  0  0  0  0  0
   -3.9855   -2.6237    4.9252 H   0  0  0  0  0  0  0  0  0  0  0  0
   -4.3336   -0.9108    3.2515 H   0  0  0  0  0  0  0  0  0  0  0  0
   -5.1814   -1.9539    1.0626 H   0  0  0  0  0  0  0  0  0  0  0  0
   -4.0422   -3.2692    1.2414 H   0  0  0  0  0  0  0  0  0  0  0  0
   -4.4837    0.1852    0.1312 H   0  0  0  0  0  0  0  0  0  0  0  0
   -3.3537    2.4638   -2.9985 H   0  0  0  0  0  0  0  0  0  0  0  0
   -3.3370    0.6956   -2.9198 H   0  0  0  0  0  0  0  0  0  0  0  0
   -1.7995    1.6267   -2.9385 H   0  0  0  0  0  0  0  0  0  0  0  0
   -0.4229    2.1940    0.4352 H   0  0  0  0  0  0  0  0  0  0  0  0
    0.7474    4.0751   -0.7178 H   0  0  0  0  0  0  0  0  0  0  0  0
   -0.6290    3.4555   -1.6435 H   0  0  0  0  0  0  0  0  0  0  0  0
    0.9977    3.0418   -2.1427 H   0  0  0  0  0  0  0  0  0  0  0  0
    1.9736    2.6192    0.8044 H   0  0  0  0  0  0  0  0  0  0  0  0
    1.4201   -0.1269    0.9490 H   0  0  0  0  0  0  0  0  0  0  0  0
    1.8707    0.8794   -2.3869 H   0  0  0  0  0  0  0  0  0  0  0  0
    5.9915   -0.0681   -2.4087 H   0  0  0  0  0  0  0  0  0  0  0  0
    7.4270   -0.8775   -0.7497 H   0  0  0  0  0  0  0  0  0  0  0  0
    8.3727    0.1841    0.2973 H   0  0  0  0  0  0  0  0  0  0  0  0
    7.8216    0.8140   -1.2573 H   0  0  0  0  0  0  0  0  0  0  0  0
    4.1884    1.3906    1.2082 H   0  0  0  0  0  0  0  0  0  0  0  0
    0.7218   -1.3456   -2.0237 H   0  0  0  0  0  0  0  0  0  0  0  0
    1.9319   -2.3111   -1.1600 H   0  0  0  0  0  0  0  0  0  0  0  0
    0.3244   -2.9959   -1.4570 H   0  0  0  0  0  0  0  0  0  0  0  0
   -1.5251   -2.7843    1.1663 H   0  0  0  0  0  0  0  0  0  0  0  0
  1  2  2  0
  2  3  1  0
  3  4  1  0
  4  5  2  0
  5  6  1  0
  6  7  1  0
  7  8  1  0
  6  9  2  0
  9 10  1  0
 10 11  1  0
 11 12  1  0
 11 13  1  0
 13 14  1  0
 13 15  1  0
 15 16  2  0
 16 17  1  0
 17 18  1  0
 17 19  2  0
 19 20  1  0
 20 21  1  0
 21 22  1  0
 20 23  2  0
  9 24  1  0
 24 25  1  0
 25 26  1  0
 24 27  2  0
 27  4  1  0
 23 15  1  0
  1 28  1  0
  1 29  1  0
  2 30  1  0
  3 31  1  0
  3 32  1  0
  5 33  1  0
  8 34  1  0
  8 35  1  0
  8 36  1  0
 11 37  1  0
 12 38  1  0
 12 39  1  0
 12 40  1  0
 13 41  1  0
 14 42  1  0
 16 43  1  0
 19 44  1  0
 22 45  1  0
 22 46  1  0
 22 47  1  0
 23 48  1  0
 26 49  1  0
 26 50  1  0
 26 51  1  0
 27 52  1  0
M  CHG  1  18  -1
M  END
$$$$
