@<TRIPOS>MOLECULE
MOL
   52    53     1     0     0
SMALL
bcc


@<TRIPOS>ATOM
      1 C1          -3.9910    -2.8830     3.8710 c2         1 MOL      -0.239000
      2 C2          -4.1800    -1.9410     2.9370 c2         1 MOL      -0.147200
      3 C3          -4.1890    -2.2030     1.4580 c3         1 MOL      -0.004900
      4 C4          -3.1370    -1.4040     0.7280 ca         1 MOL      -0.069300
      5 C5          -3.4630    -0.1890     0.1090 ca         1 MOL      -0.156000
      6 C6          -2.4830     0.5560    -0.5540 ca         1 MOL       0.109600
      7 O1          -2.8890     1.7240    -1.1490 os         1 MOL      -0.352900
      8 C7          -2.8300     1.6030    -2.5720 c3         1 MOL       0.101700
      9 C8          -1.1510     0.1290    -0.5520 ca         1 MOL       0.050100
     10 O2          -0.1700     0.8640    -1.1580 os         1 MOL      -0.322900
     11 C9           0.2990     1.9720    -0.3640 c3         1 MOL       0.122100
     12 C10          0.3670     3.2070    -1.2640 c3         1 MOL      -0.122100
     13 C11          1.6710     1.6840     0.3150 c3         1 MOL       0.188400
     14 O3           1.4630     0.7480     1.3880 oh         1 MOL      -0.618800
     15 C12          2.8660     1.2090    -0.4890 ca         1 MOL      -0.042300
     16 C13          2.8110     0.8290    -1.8420 ca         1 MOL      -0.321000
     17 C14          3.9170     0.3510    -2.5770 ca         1 MOL       0.568700
     18 O4           3.8260    -0.0050    -3.7980 o          1 MOL      -0.795700
     19 C15          5.1270     0.2930    -1.8590 ca         1 MOL      -0.403000
     20 C16          5.2390     0.6670    -0.5140 ca         1 MOL       0.175100
     21 O5           6.3830     0.6320     0.2420 os         1 MOL      -0.359900
     22 C17          7.5480     0.1610    -0.4220 c3         1 MOL       0.128700
     23 C18          4.1060     1.1180     0.1600 ca         1 MOL      -0.341000
     24 C19         -0.8320    -1.1070     0.0190 ca         1 MOL       0.109600
     25 O6           0.4540    -1.5830     0.0600 os         1 MOL      -0.352900
     26 C20          0.8660    -2.0740    -1.2210 c3         1 MOL       0.101700
     27 C21         -1.8100    -1.8540     0.6800 ca         1 MOL      -0.156000
     28 H1          -3.8230    -3.9230     3.6080 ha         1 MOL       0.106500
     29 H2          -3.9860    -2.6240     4.9250 ha         1 MOL       0.106500
     30 H3          -4.3340    -0.9110     3.2520 ha         1 MOL       0.127000
     31 H4          -5.1810    -1.9540     1.0630 hc         1 MOL       0.051700
     32 H5          -4.0420    -3.2690     1.2410 hc         1 MOL       0.051700
     33 H6          -4.4840     0.1850     0.1310 ha         1 MOL       0.139500
     34 H7          -3.3540     2.4640    -2.9980 h1         1 MOL       0.056867
     35 H8          -3.3370     0.6960    -2.9200 h1         1 MOL       0.056867
     36 H9          -1.8000     1.6270    -2.9380 h1         1 MOL       0.056867
     37 H10         -0.4230     2.1940     0.4350 h1         1 MOL       0.054700
     38 H11          0.7470     4.0750    -0.7180 hc         1 MOL       0.046700
     39 H12         -0.6290     3.4550    -1.6430 hc         1 MOL       0.046700
     40 H13          0.9980     3.0420    -2.1430 hc         1 MOL       0.046700
     41 H14          1.9740     2.6190     0.8040 h1         1 MOL       0.064700
     42 H15          1.4200    -0.1270     0.9490 ho         1 MOL       0.413000
     43 H16          1.8710     0.8790    -2.3870 ha         1 MOL       0.112000
     44 H17          5.9920    -0.0680    -2.4090 ha         1 MOL       0.112000
     45 H18          7.4270    -0.8770    -0.7500 h1         1 MOL       0.022367
     46 H19          8.3730     0.1840     0.2970 h1         1 MOL       0.022367
     47 H20          7.8220     0.8140    -1.2570 h1         1 MOL       0.022367
     48 H21          4.1880     1.3910     1.2080 ha         1 MOL       0.121000
     49 H22          0.7220    -1.3460    -2.0240 h1         1 MOL       0.056867
     50 H23          1.9320    -2.3110    -1.1600 h1         1 MOL       0.056867
     51 H24          0.3240    -2.9960    -1.4570 h1         1 MOL       0.056867
     52 H25         -1.5250    -2.7840     1.1660 ha         1 MOL       0.139500
@<TRIPOS>BOND
     1     1     2 2   
     2     2     3 1   
     3     3     4 1   
     4     4     5 ar  
     5     5     6 ar  
     6     6     7 1   
     7     7     8 1   
     8     6     9 ar  
     9     9    10 1   
    10    10    11 1   
    11    11    12 1   
    12    11    13 1   
    13    13    14 1   
    14    13    15 1   
    15    15    16 ar  
    16    16    17 ar  
    17    17    18 1   
    18    17    19 ar  
    19    19    20 ar  
    20    20    21 1   
    21    21    22 1   
    22    20    23 ar  
    23     9    24 ar  
    24    24    25 1   
    25    25    26 1   
    26    24    27 ar  
    27    27     4 ar  
    28    23    15 ar  
    29     1    28 1   
    30     1    29 1   
    31     2    30 1   
    32     3    31 1   
    33     3    32 1   
    34     5    33 1   
    35     8    34 1   
    36     8    35 1   
    37     8    36 1   
    38    11    37 1   
    39    12    38 1   
    40    12    39 1   
    41    12    40 1   
    42    13    41 1   
    43    14    42 1   
    44    16    43 1   
    45    19    44 1   
    46    22    45 1   
    47    22    46 1   
    48    22    47 1   
    49    23    48 1   
    50    26    49 1   
    51    26    50 1   
    52    26    51 1   
    53    27    52 1   
@<TRIPOS>SUBSTRUCTURE
     1 MOL         1 TEMP              0 ****  ****    0 ROOT
