@<TRIPOS>MOLECULE
MOL
   29    29     1     0     0
SMALL
bcc


@<TRIPOS>ATOM
      1 C1           0.8160     2.4270    -0.2040 c3         1 MOL      -0.093100
      2 C2          -0.2410     1.3200    -0.1840 c3         1 MOL      -0.127700
      3 C3          -1.6300     1.9370     0.0180 c3         1 MOL       0.032700
      4 S1          -2.9500     0.6890    -0.2020 ss         1 MOL      -0.178600
      5 N1          -4.1740     1.8650     0.0660 n2         1 MOL       0.078800
      6 O1          -5.2990     1.3690    -0.0540 o          1 MOL      -0.166300
      7 C4           0.1010     0.3670     0.9560 c          1 MOL       0.671100
      8 O2          -0.2240     0.6440     2.1160 o          1 MOL      -0.684100
      9 N2           0.7950    -0.7820     0.6630 n          1 MOL      -0.429800
     10 C5           1.2180    -1.6810     1.7180 c3         1 MOL       0.100000
     11 C6           2.1250    -2.6970     1.0470 c3         1 MOL      -0.084400
     12 C7           1.5920    -2.7540    -0.3800 c3         1 MOL      -0.077400
     13 C8           1.1670    -1.3120    -0.6740 c3         1 MOL      -0.029300
     14 C9           2.2950    -0.5420    -1.4290 c          1 MOL       0.901600
     15 O3           1.8950     0.1140    -2.4370 o          1 MOL      -0.824800
     16 O4           3.4640    -0.6470    -0.9610 o          1 MOL      -0.824800
     17 H1           0.6630     3.0950    -1.0580 hc         1 MOL       0.053033
     18 H2           1.8280     2.0170    -0.2710 hc         1 MOL       0.053033
     19 H3           0.7740     3.0320     0.7100 hc         1 MOL       0.053033
     20 H4          -0.2280     0.8090    -1.1490 hc         1 MOL       0.130700
     21 H5          -1.7820     2.7320    -0.7240 h1         1 MOL       0.081700
     22 H6          -1.7190     2.3880     1.0140 h1         1 MOL       0.081700
     23 H7           0.3210    -2.1600     2.1280 h1         1 MOL       0.037700
     24 H8           1.7170    -1.1320     2.5220 h1         1 MOL       0.037700
     25 H9           2.1040    -3.6700     1.5460 hc         1 MOL       0.030700
     26 H10          3.1610    -2.3400     1.0530 hc         1 MOL       0.030700
     27 H11          0.7130    -3.4100    -0.4100 hc         1 MOL       0.051200
     28 H12          2.3300    -3.1520    -1.0830 hc         1 MOL       0.051200
     29 H13          0.2680    -1.3200    -1.3020 h1         1 MOL       0.045700
@<TRIPOS>BOND
     1     1     2 1   
     2     2     3 1   
     3     3     4 1   
     4     4     5 1   
     5     5     6 2   
     6     2     7 1   
     7     7     8 2   
     8     7     9 1   
     9     9    10 1   
    10    10    11 1   
    11    11    12 1   
    12    12    13 1   
    13    13    14 1   
    14    14    15 1   
    15    14    16 1   
    16    13     9 1   
    17     1    17 1   
    18     1    18 1   
    19     1    19 1   
    20     2    20 1   
    21     3    21 1   
    22     3    22 1   
    23    10    23 1   
    24    10    24 1   
    25    11    25 1   
    26    11    26 1   
    27    12    27 1   
    28    12    28 1   
    29    13    29 1   
@<TRIPOS>SUBSTRUCTURE
     1 MOL         1 TEMP              0 ****  ****    0 ROOT
