
     RDKit          3D

 29 29  0  0  0  0  0  0  0  0999 V2000
    0.8163    2.4274   -0.2037 C   0  0  0  0  0  0  0  0  0  0  0  0
   -0.2407    1.3198   -0.1842 C   0  0  2  0  0  0  0  0  0  0  0  0
   -1.6302    1.9374    0.0177 C   0  0  0  0  0  0  0  0  0  0  0  0
   -2.9495    0.6886   -0.2024 S   0  0  0  0  0  0  0  0  0  0  0  0
   -4.1743    1.8654    0.0659 N   0  0  0  0  0  0  0  0  0  0  0  0
   -5.2986    1.3687   -0.0538 O   0  0  0  0  0  0  0  0  0  0  0  0
    0.1009    0.3672    0.9564 C   0  0  0  0  0  0  0  0  0  0  0  0
   -0.2243    0.6445    2.1162 O   0  0  0  0  0  0  0  0  0  0  0  0
    0.7953   -0.7816    0.6630 N   0  0  0  0  0  0  0  0  0  0  0  0
    1.2175   -1.6810    1.7176 C   0  0  0  0  0  0  0  0  0  0  0  0
    2.1248   -2.6969    1.0470 C   0  0  0  0  0  0  0  0  0  0  0  0
    1.5924   -2.7543   -0.3801 C   0  0  0  0  0  0  0  0  0  0  0  0
    1.1670   -1.3123   -0.6739 C   0  0  2  0  0  0  0  0  0  0  0  0
    2.2952   -0.5418   -1.4290 C   0  0  0  0  0  0  0  0  0  0  0  0
    1.8952    0.1139   -2.4370 O   0  0  0  0  0  0  0  0  0  0  0  0
    3.4638   -0.6475   -0.9609 O   0  0  0  0  0  0  0  0  0  0  0  0
    0.6633    3.0947   -1.0583 H   0  0  0  0  0  0  0  0  0  0  0  0
    1.8283    2.0170   -0.2708 H   0  0  0  0  0  0  0  0  0  0  0  0
    0.7741    3.0319    0.7097 H   0  0  0  0  0  0  0  0  0  0  0  0
   -0.2283    0.8093   -1.1488 H   0  0  0  0  0  0  0  0  0  0  0  0
   -1.7818    2.7315   -0.7237 H   0  0  0  0  0  0  0  0  0  0  0  0
   -1.7192    2.3880    1.0136 H   0  0  0  0  0  0  0  0  0  0  0  0
    0.3209   -2.1598    2.1277 H   0  0  0  0  0  0  0  0  0  0  0  0
    1.7173   -1.1324    2.5220 H   0  0  0  0  0  0  0  0  0  0  0  0
    2.1036   -3.6699    1.5462 H   0  0  0  0  0  0  0  0  0  0  0  0
    3.1607   -2.3400    1.0528 H   0  0  0  0  0  0  0  0  0  0  0  0
    0.7128   -3.4098   -0.4097 H   0  0  0  0  0  0  0  0  0  0  0  0
    2.3300   -3.1525   -1.0834 H   0  0  0  0  0  0  0  0  0  0  0  0
    0.2684   -1.3196   -1.3024 H   0  0  0  0  0  0  0  0  0  0  0  0
  1  2  1  0
  2  3  1  0
  3  4  1  0
  4  5  1  0
  5  6  2  0
  2  7  1  0
  7  8  2  0
  7  9  1  0
  9 10  1  0
 10 11  1  0
 11 12  1  0
 12 13  1  0
 13 14  1  0
 14 15  2  0
 14 16  1  0
 13  9  1  0
  1 17  1  0
  1 18  1  0
  1 19  1  0
  2 20  1  6
  3 21  1  0
  3 22  1  0
 10 23  1  0
 10 24  1  0
 11 25  1  0
 11 26  1  0
 12 27  1  0
 12 28  1  0
 13 29  1  6
M  CHG  1  16  -1
M  END
$$$$
