@<TRIPOS>MOLECULE
MOL
   59    60     1     0     0
SMALL
bcc


@<TRIPOS>ATOM
      1 C1           3.7460    -2.0310     5.6890 c2         1 MOL      -0.220000
      2 C2           2.6760    -1.5290     5.0580 c2         1 MOL      -0.162200
      3 C3           1.6760    -2.3530     4.2980 c3         1 MOL      -0.010900
      4 C4           1.5830    -1.9420     2.8460 ca         1 MOL      -0.014300
      5 C5           2.5460    -2.3850     1.9250 ca         1 MOL      -0.223000
      6 C6           2.4820    -1.9990     0.5840 ca         1 MOL       0.135600
      7 O1           3.3710    -2.3900    -0.3860 os         1 MOL      -0.315900
      8 C7           4.3940    -3.3000    -0.0090 c3         1 MOL       0.109200
      9 C8           1.4520    -1.1360     0.1700 ca         1 MOL       0.043100
     10 O2           1.3870    -0.8090    -1.1680 os         1 MOL      -0.320900
     11 C9           1.7050     0.5710    -1.4320 c3         1 MOL       0.142100
     12 C10          3.2210     0.7110    -1.5940 c3         1 MOL      -0.121100
     13 C11          1.0140     0.9720    -2.7510 c3         1 MOL      -0.039100
     14 C12         -0.4770     1.1900    -2.5980 ca         1 MOL      -0.021300
     15 C13         -1.3500     0.0900    -2.5930 ca         1 MOL      -0.222000
     16 C14         -2.7220     0.2680    -2.4060 ca         1 MOL       0.134100
     17 O3          -3.6350    -0.7540    -2.3610 os         1 MOL      -0.315400
     18 C15         -3.1190    -2.0460    -2.0640 c3         1 MOL       0.110200
     19 C16         -3.2240     1.5720    -2.2700 ca         1 MOL       0.034100
     20 O4          -4.5730     1.7580    -2.0530 os         1 MOL      -0.311900
     21 C17         -5.2410     1.8980    -3.3050 c3         1 MOL       0.115700
     22 C18         -2.3670     2.6860    -2.2570 ca         1 MOL       0.134100
     23 O5          -2.9650     3.9080    -2.0830 os         1 MOL      -0.315400
     24 C19         -2.1140     5.0360    -1.9360 c3         1 MOL       0.110200
     25 C20         -0.9950     2.4840    -2.4240 ca         1 MOL      -0.222000
     26 C21          0.4620    -0.7060     1.0720 ca         1 MOL       0.135600
     27 O6          -0.5310     0.0880     0.5640 os         1 MOL      -0.315900
     28 C22         -1.6600     0.3500     1.3850 c3         1 MOL       0.109200
     29 C23          0.5470    -1.1010     2.4100 ca         1 MOL      -0.223000
     30 H1           3.9650    -3.0940     5.6890 ha         1 MOL       0.113000
     31 H2           4.4310    -1.3780     6.2230 ha         1 MOL       0.113000
     32 H3           2.5010    -0.4560     5.0910 ha         1 MOL       0.124000
     33 H4           0.6960    -2.2470     4.7780 hc         1 MOL       0.057700
     34 H5           1.9190    -3.4230     4.3500 hc         1 MOL       0.057700
     35 H6           3.3390    -3.0310     2.2870 ha         1 MOL       0.141500
     36 H7           3.9720    -4.2420     0.3560 h1         1 MOL       0.047200
     37 H8           5.0670    -2.8530     0.7300 h1         1 MOL       0.047200
     38 H9           4.9860    -3.5250    -0.9020 h1         1 MOL       0.047200
     39 H10          1.3730     1.2370    -0.6260 h1         1 MOL       0.064700
     40 H11          3.6000     0.0190    -2.3540 hc         1 MOL       0.045700
     41 H12          3.4970     1.7320    -1.8780 hc         1 MOL       0.045700
     42 H13          3.7380     0.4720    -0.6590 hc         1 MOL       0.045700
     43 H14          1.1750     0.2020    -3.5170 hc         1 MOL       0.066700
     44 H15          1.4590     1.8950    -3.1450 hc         1 MOL       0.066700
     45 H16         -0.9240    -0.9010    -2.7150 ha         1 MOL       0.153500
     46 H17         -2.5770    -2.4550    -2.9220 h1         1 MOL       0.045200
     47 H18         -3.9690    -2.7070    -1.8640 h1         1 MOL       0.045200
     48 H19         -2.4900    -2.0340    -1.1670 h1         1 MOL       0.045200
     49 H20         -6.3040     2.0590    -3.1010 h1         1 MOL       0.039700
     50 H21         -4.8710     2.7670    -3.8610 h1         1 MOL       0.039700
     51 H22         -5.1490     0.9920    -3.9130 h1         1 MOL       0.039700
     52 H23         -2.7460     5.9090    -1.7460 h1         1 MOL       0.045200
     53 H24         -1.4430     4.9190    -1.0790 h1         1 MOL       0.045200
     54 H25         -1.5520     5.2270    -2.8570 h1         1 MOL       0.045200
     55 H26         -0.3020     3.3190    -2.4210 ha         1 MOL       0.153500
     56 H27         -2.3880     0.9090     0.7900 h1         1 MOL       0.047200
     57 H28         -1.3850     0.9740     2.2410 h1         1 MOL       0.047200
     58 H29         -2.1390    -0.5790     1.7110 h1         1 MOL       0.047200
     59 H30         -0.1840    -0.7640     3.1380 ha         1 MOL       0.141500
@<TRIPOS>BOND
     1     1     2 2   
     2     2     3 1   
     3     3     4 1   
     4     4     5 ar  
     5     5     6 ar  
     6     6     7 1   
     7     7     8 1   
     8     6     9 ar  
     9     9    10 1   
    10    10    11 1   
    11    11    12 1   
    12    11    13 1   
    13    13    14 1   
    14    14    15 ar  
    15    15    16 ar  
    16    16    17 1   
    17    17    18 1   
    18    16    19 ar  
    19    19    20 1   
    20    20    21 1   
    21    19    22 ar  
    22    22    23 1   
    23    23    24 1   
    24    22    25 ar  
    25     9    26 ar  
    26    26    27 1   
    27    27    28 1   
    28    26    29 ar  
    29    29     4 ar  
    30    25    14 ar  
    31     1    30 1   
    32     1    31 1   
    33     2    32 1   
    34     3    33 1   
    35     3    34 1   
    36     5    35 1   
    37     8    36 1   
    38     8    37 1   
    39     8    38 1   
    40    11    39 1   
    41    12    40 1   
    42    12    41 1   
    43    12    42 1   
    44    13    43 1   
    45    13    44 1   
    46    15    45 1   
    47    18    46 1   
    48    18    47 1   
    49    18    48 1   
    50    21    49 1   
    51    21    50 1   
    52    21    51 1   
    53    24    52 1   
    54    24    53 1   
    55    24    54 1   
    56    25    55 1   
    57    28    56 1   
    58    28    57 1   
    59    28    58 1   
    60    29    59 1   
@<TRIPOS>SUBSTRUCTURE
     1 MOL         1 TEMP              0 ****  ****    0 ROOT
