
     RDKit          3D

 59 60  0  0  0  0  0  0  0  0999 V2000
    3.7462   -2.0308    5.6890 C   0  0  0  0  0  0  0  0  0  0  0  0
    2.6765   -1.5293    5.0575 C   0  0  0  0  0  0  0  0  0  0  0  0
    1.6763   -2.3535    4.2976 C   0  0  0  0  0  0  0  0  0  0  0  0
    1.5827   -1.9423    2.8458 C   0  0  0  0  0  0  0  0  0  0  0  0
    2.5456   -2.3855    1.9246 C   0  0  0  0  0  0  0  0  0  0  0  0
    2.4821   -1.9989    0.5837 C   0  0  0  0  0  0  0  0  0  0  0  0
    3.3712   -2.3896   -0.3856 O   0  0  0  0  0  0  0  0  0  0  0  0
    4.3943   -3.2997   -0.0091 C   0  0  0  0  0  0  0  0  0  0  0  0
    1.4516   -1.1359    0.1699 C   0  0  0  0  0  0  0  0  0  0  0  0
    1.3874   -0.8095   -1.1684 O   0  0  0  0  0  0  0  0  0  0  0  0
    1.7051    0.5711   -1.4320 C   0  0  0  0  0  0  0  0  0  0  0  0
    3.2209    0.7114   -1.5943 C   0  0  0  0  0  0  0  0  0  0  0  0
    1.0136    0.9724   -2.7513 C   0  0  0  0  0  0  0  0  0  0  0  0
   -0.4774    1.1901   -2.5981 C   0  0  0  0  0  0  0  0  0  0  0  0
   -1.3497    0.0904   -2.5930 C   0  0  0  0  0  0  0  0  0  0  0  0
   -2.7217    0.2677   -2.4061 C   0  0  0  0  0  0  0  0  0  0  0  0
   -3.6355   -0.7545   -2.3609 O   0  0  0  0  0  0  0  0  0  0  0  0
   -3.1191   -2.0463   -2.0640 C   0  0  0  0  0  0  0  0  0  0  0  0
   -3.2240    1.5717   -2.2698 C   0  0  0  0  0  0  0  0  0  0  0  0
   -4.5730    1.7579   -2.0534 O   0  0  0  0  0  0  0  0  0  0  0  0
   -5.2414    1.8983   -3.3055 C   0  0  0  0  0  0  0  0  0  0  0  0
   -2.3672    2.6859   -2.2566 C   0  0  0  0  0  0  0  0  0  0  0  0
   -2.9648    3.9084   -2.0831 O   0  0  0  0  0  0  0  0  0  0  0  0
   -2.1139    5.0360   -1.9363 C   0  0  0  0  0  0  0  0  0  0  0  0
   -0.9945    2.4839   -2.4242 C   0  0  0  0  0  0  0  0  0  0  0  0
    0.4617   -0.7061    1.0724 C   0  0  0  0  0  0  0  0  0  0  0  0
   -0.5307    0.0880    0.5642 O   0  0  0  0  0  0  0  0  0  0  0  0
   -1.6602    0.3500    1.3853 C   0  0  0  0  0  0  0  0  0  0  0  0
    0.5471   -1.1005    2.4103 C   0  0  0  0  0  0  0  0  0  0  0  0
    3.9652   -3.0939    5.6892 H   0  0  0  0  0  0  0  0  0  0  0  0
    4.4306   -1.3781    6.2229 H   0  0  0  0  0  0  0  0  0  0  0  0
    2.5012   -0.4556    5.0914 H   0  0  0  0  0  0  0  0  0  0  0  0
    0.6957   -2.2474    4.7781 H   0  0  0  0  0  0  0  0  0  0  0  0
    1.9185   -3.4228    4.3501 H   0  0  0  0  0  0  0  0  0  0  0  0
    3.3393   -3.0315    2.2868 H   0  0  0  0  0  0  0  0  0  0  0  0
    3.9724   -4.2418    0.3564 H   0  0  0  0  0  0  0  0  0  0  0  0
    5.0668   -2.8526    0.7303 H   0  0  0  0  0  0  0  0  0  0  0  0
    4.9860   -3.5252   -0.9016 H   0  0  0  0  0  0  0  0  0  0  0  0
    1.3726    1.2370   -0.6256 H   0  0  0  0  0  0  0  0  0  0  0  0
    3.5997    0.0190   -2.3541 H   0  0  0  0  0  0  0  0  0  0  0  0
    3.4969    1.7318   -1.8781 H   0  0  0  0  0  0  0  0  0  0  0  0
    3.7376    0.4723   -0.6593 H   0  0  0  0  0  0  0  0  0  0  0  0
    1.1755    0.2018   -3.5166 H   0  0  0  0  0  0  0  0  0  0  0  0
    1.4588    1.8953   -3.1447 H   0  0  0  0  0  0  0  0  0  0  0  0
   -0.9242   -0.9015   -2.7154 H   0  0  0  0  0  0  0  0  0  0  0  0
   -2.5770   -2.4553   -2.9225 H   0  0  0  0  0  0  0  0  0  0  0  0
   -3.9685   -2.7066   -1.8641 H   0  0  0  0  0  0  0  0  0  0  0  0
   -2.4899   -2.0336   -1.1672 H   0  0  0  0  0  0  0  0  0  0  0  0
   -6.3042    2.0586   -3.1007 H   0  0  0  0  0  0  0  0  0  0  0  0
   -4.8709    2.7666   -3.8615 H   0  0  0  0  0  0  0  0  0  0  0  0
   -5.1488    0.9917   -3.9133 H   0  0  0  0  0  0  0  0  0  0  0  0
   -2.7457    5.9090   -1.7462 H   0  0  0  0  0  0  0  0  0  0  0  0
   -1.4426    4.9188   -1.0790 H   0  0  0  0  0  0  0  0  0  0  0  0
   -1.5524    5.2272   -2.8566 H   0  0  0  0  0  0  0  0  0  0  0  0
   -0.3016    3.3187   -2.4208 H   0  0  0  0  0  0  0  0  0  0  0  0
   -2.3877    0.9091    0.7900 H   0  0  0  0  0  0  0  0  0  0  0  0
   -1.3847    0.9744    2.2412 H   0  0  0  0  0  0  0  0  0  0  0  0
   -2.1391   -0.5794    1.7106 H   0  0  0  0  0  0  0  0  0  0  0  0
   -0.1844   -0.7641    3.1384 H   0  0  0  0  0  0  0  0  0  0  0  0
  1  2  2  0
  2  3  1  0
  3  4  1  0
  4  5  2  0
  5  6  1  0
  6  7  1  0
  7  8  1  0
  6  9  2  0
  9 10  1  0
 10 11  1  0
 11 12  1  0
 11 13  1  0
 13 14  1  0
 14 15  2  0
 15 16  1  0
 16 17  1  0
 17 18  1  0
 16 19  2  0
 19 20  1  0
 20 21  1  0
 19 22  1  0
 22 23  1  0
 23 24  1  0
 22 25  2  0
  9 26  1  0
 26 27  1  0
 27 28  1  0
 26 29  2  0
 29  4  1  0
 25 14  1  0
  1 30  1  0
  1 31  1  0
  2 32  1  0
  3 33  1  0
  3 34  1  0
  5 35  1  0
  8 36  1  0
  8 37  1  0
  8 38  1  0
 11 39  1  0
 12 40  1  0
 12 41  1  0
 12 42  1  0
 13 43  1  0
 13 44  1  0
 15 45  1  0
 18 46  1  0
 18 47  1  0
 18 48  1  0
 21 49  1  0
 21 50  1  0
 21 51  1  0
 24 52  1  0
 24 53  1  0
 24 54  1  0
 25 55  1  0
 28 56  1  0
 28 57  1  0
 28 58  1  0
 29 59  1  0
M  END
$$$$
