
     RDKit          3D

 51 50  0  0  0  0  0  0  0  0999 V2000
   -3.2846    1.1138   -0.4199 C   0  0  0  0  0  0  0  0  0  0  0  0
   -2.6037    0.6930    0.4738 C   0  0  0  0  0  0  0  0  0  0  0  0
   -1.6939    0.1501    1.5891 C   0  0  0  0  0  0  0  0  0  0  0  0
   -0.9535   -0.2752    2.4330 C   0  0  0  0  0  0  0  0  0  0  0  0
   -0.0195   -0.7832    3.4426 C   0  0  0  0  0  0  0  0  0  0  0  0
    1.1569   -1.4181    2.7579 C   0  0  0  0  0  0  0  0  0  0  0  0
    2.4039   -0.9313    2.6372 C   0  0  0  0  0  0  0  0  0  0  0  0
    2.9318    0.3772    3.1571 C   0  0  0  0  0  0  0  0  0  0  0  0
    3.2659    1.3688    2.0373 C   0  0  0  0  0  0  0  0  0  0  0  0
    2.0187    1.9071    1.3274 C   0  0  0  0  0  0  0  0  0  0  0  0
    2.3915    2.9250    0.2441 C   0  0  0  0  0  0  0  0  0  0  0  0
    1.1695    3.5465   -0.4457 C   0  0  0  0  0  0  0  0  0  0  0  0
    0.3526    2.6877   -1.3731 C   0  0  0  0  0  0  0  0  0  0  0  0
    0.6387    1.4514   -1.8108 C   0  0  0  0  0  0  0  0  0  0  0  0
   -0.2950    0.7410   -2.7250 C   0  0  0  0  0  0  0  0  0  0  0  0
   -1.2916    1.2679   -3.2018 O   0  0  0  0  0  0  0  0  0  0  0  0
    0.0864   -0.5574   -2.9627 N   0  0  0  0  0  0  0  0  0  0  0  0
   -0.6979   -1.4404   -3.8012 C   0  0  0  0  0  0  0  0  0  0  0  0
   -1.8958   -2.0651   -3.0619 C   0  0  0  0  0  0  0  0  0  0  0  0
   -2.9517   -2.4985   -4.0864 C   0  0  0  0  0  0  0  0  0  0  0  0
   -1.5159   -3.2814   -2.1925 C   0  0  0  0  0  0  0  0  0  0  0  0
   -0.5756   -2.9695   -1.0386 C   0  0  0  0  0  0  0  0  0  0  0  0
   -3.8526    1.4836   -1.2415 H   0  0  0  0  0  0  0  0  0  0  0  0
   -0.5112   -1.5369    4.0680 H   0  0  0  0  0  0  0  0  0  0  0  0
    0.2810    0.0254    4.1144 H   0  0  0  0  0  0  0  0  0  0  0  0
    0.9515   -2.3905    2.3101 H   0  0  0  0  0  0  0  0  0  0  0  0
    3.1311   -1.5392    2.0992 H   0  0  0  0  0  0  0  0  0  0  0  0
    2.2454    0.8459    3.8684 H   0  0  0  0  0  0  0  0  0  0  0  0
    3.8487    0.1627    3.7202 H   0  0  0  0  0  0  0  0  0  0  0  0
    3.8182    2.2097    2.4751 H   0  0  0  0  0  0  0  0  0  0  0  0
    3.9349    0.8973    1.3065 H   0  0  0  0  0  0  0  0  0  0  0  0
    1.4608    1.0775    0.8840 H   0  0  0  0  0  0  0  0  0  0  0  0
    1.3586    2.3825    2.0631 H   0  0  0  0  0  0  0  0  0  0  0  0
    2.9635    3.7369    0.7115 H   0  0  0  0  0  0  0  0  0  0  0  0
    3.0569    2.4662   -0.4970 H   0  0  0  0  0  0  0  0  0  0  0  0
    0.4972    3.9438    0.3253 H   0  0  0  0  0  0  0  0  0  0  0  0
    1.5121    4.4115   -1.0277 H   0  0  0  0  0  0  0  0  0  0  0  0
   -0.5733    3.1534   -1.7145 H   0  0  0  0  0  0  0  0  0  0  0  0
    1.5418    0.9356   -1.5164 H   0  0  0  0  0  0  0  0  0  0  0  0
    0.9254   -0.9211   -2.5348 H   0  0  0  0  0  0  0  0  0  0  0  0
   -0.0249   -2.2161   -4.1828 H   0  0  0  0  0  0  0  0  0  0  0  0
   -1.0433   -0.8526   -4.6599 H   0  0  0  0  0  0  0  0  0  0  0  0
   -2.3600   -1.3103   -2.4146 H   0  0  0  0  0  0  0  0  0  0  0  0
   -3.2933   -1.6431   -4.6790 H   0  0  0  0  0  0  0  0  0  0  0  0
   -3.8284   -2.9250   -3.5875 H   0  0  0  0  0  0  0  0  0  0  0  0
   -2.5517   -3.2512   -4.7744 H   0  0  0  0  0  0  0  0  0  0  0  0
   -2.4335   -3.7091   -1.7686 H   0  0  0  0  0  0  0  0  0  0  0  0
   -1.0678   -4.0647   -2.8163 H   0  0  0  0  0  0  0  0  0  0  0  0
    0.4367   -2.7577   -1.3921 H   0  0  0  0  0  0  0  0  0  0  0  0
   -0.9330   -2.1165   -0.4553 H   0  0  0  0  0  0  0  0  0  0  0  0
   -0.5082   -3.8325   -0.3679 H   0  0  0  0  0  0  0  0  0  0  0  0
  1  2  3  0
  2  3  1  0
  3  4  3  0
  4  5  1  0
  5  6  1  0
  6  7  2  0
  7  8  1  0
  8  9  1  0
  9 10  1  0
 10 11  1  0
 11 12  1  0
 12 13  1  0
 13 14  2  0
 14 15  1  0
 15 16  2  0
 15 17  1  0
 17 18  1  0
 18 19  1  0
 19 20  1  0
 19 21  1  0
 21 22  1  0
  1 23  1  0
  5 24  1  0
  5 25  1  0
  6 26  1  0
  7 27  1  0
  8 28  1  0
  8 29  1  0
  9 30  1  0
  9 31  1  0
 10 32  1  0
 10 33  1  0
 11 34  1  0
 11 35  1  0
 12 36  1  0
 12 37  1  0
 13 38  1  0
 14 39  1  0
 17 40  1  0
 18 41  1  0
 18 42  1  0
 19 43  1  0
 20 44  1  0
 20 45  1  0
 20 46  1  0
 21 47  1  0
 21 48  1  0
 22 49  1  0
 22 50  1  0
 22 51  1  0
M  END
$$$$
