@<TRIPOS>MOLECULE
MOL
   51    50     1     0     0
SMALL
bcc


@<TRIPOS>ATOM
      1 C1          -3.2850     1.1140    -0.4200 c1         1 MOL      -0.117500
      2 C2          -2.6040     0.6930     0.4740 cg         1 MOL      -0.055000
      3 C3          -1.6940     0.1500     1.5890 cg         1 MOL      -0.061000
      4 C4          -0.9540    -0.2750     2.4330 c1         1 MOL      -0.087100
      5 C5          -0.0190    -0.7830     3.4430 c3         1 MOL       0.029900
      6 C6           1.1570    -1.4180     2.7580 c2         1 MOL      -0.172200
      7 C7           2.4040    -0.9310     2.6370 c2         1 MOL      -0.167200
      8 C8           2.9320     0.3770     3.1570 c3         1 MOL      -0.052200
      9 C9           3.2660     1.3690     2.0370 c3         1 MOL      -0.076400
     10 C10          2.0190     1.9070     1.3270 c3         1 MOL      -0.084400
     11 C11          2.3920     2.9250     0.2440 c3         1 MOL      -0.080400
     12 C12          1.1690     3.5460    -0.4460 c3         1 MOL      -0.062200
     13 C13          0.3530     2.6880    -1.3730 c2         1 MOL      -0.078200
     14 C14          0.6390     1.4510    -1.8110 ce         1 MOL      -0.253200
     15 C15         -0.2950     0.7410    -2.7250 c          1 MOL       0.654300
     16 O1          -1.2920     1.2680    -3.2020 o          1 MOL      -0.618100
     17 N1           0.0860    -0.5570    -2.9630 ns         1 MOL      -0.561900
     18 C16         -0.6980    -1.4400    -3.8010 c3         1 MOL       0.086000
     19 C17         -1.8960    -2.0650    -3.0620 c3         1 MOL      -0.091700
     20 C18         -2.9520    -2.4980    -4.0860 c3         1 MOL      -0.091100
     21 C19         -1.5160    -3.2810    -2.1920 c3         1 MOL      -0.080400
     22 C20         -0.5760    -2.9700    -1.0390 c3         1 MOL      -0.096100
     23 H1          -3.8530     1.4840    -1.2420 ha         1 MOL       0.172500
     24 H2          -0.5110    -1.5370     4.0680 hc         1 MOL       0.071700
     25 H3           0.2810     0.0250     4.1140 hc         1 MOL       0.071700
     26 H4           0.9520    -2.3900     2.3100 ha         1 MOL       0.134000
     27 H5           3.1310    -1.5390     2.0990 ha         1 MOL       0.124000
     28 H6           2.2450     0.8460     3.8680 hc         1 MOL       0.049200
     29 H7           3.8490     0.1630     3.7200 hc         1 MOL       0.049200
     30 H8           3.8180     2.2100     2.4750 hc         1 MOL       0.041700
     31 H9           3.9350     0.8970     1.3060 hc         1 MOL       0.041700
     32 H10          1.4610     1.0770     0.8840 hc         1 MOL       0.044700
     33 H11          1.3590     2.3820     2.0630 hc         1 MOL       0.044700
     34 H12          2.9630     3.7370     0.7120 hc         1 MOL       0.043700
     35 H13          3.0570     2.4660    -0.4970 hc         1 MOL       0.043700
     36 H14          0.4970     3.9440     0.3250 hc         1 MOL       0.059700
     37 H15          1.5120     4.4120    -1.0280 hc         1 MOL       0.059700
     38 H16         -0.5730     3.1530    -1.7140 ha         1 MOL       0.148000
     39 H17          1.5420     0.9360    -1.5160 ha         1 MOL       0.132000
     40 H18          0.9250    -0.9210    -2.5350 hn         1 MOL       0.302500
     41 H19         -0.0250    -2.2160    -4.1830 h1         1 MOL       0.063700
     42 H20         -1.0430    -0.8530    -4.6600 h1         1 MOL       0.063700
     43 H21         -2.3600    -1.3100    -2.4150 hc         1 MOL       0.054700
     44 H22         -3.2930    -1.6430    -4.6790 hc         1 MOL       0.037700
     45 H23         -3.8280    -2.9250    -3.5870 hc         1 MOL       0.037700
     46 H24         -2.5520    -3.2510    -4.7740 hc         1 MOL       0.037700
     47 H25         -2.4330    -3.7090    -1.7690 hc         1 MOL       0.042200
     48 H26         -1.0680    -4.0650    -2.8160 hc         1 MOL       0.042200
     49 H27          0.4370    -2.7580    -1.3920 hc         1 MOL       0.032700
     50 H28         -0.9330    -2.1160    -0.4550 hc         1 MOL       0.032700
     51 H29         -0.5080    -3.8330    -0.3680 hc         1 MOL       0.032700
@<TRIPOS>BOND
     1     1     2 3   
     2     2     3 1   
     3     3     4 3   
     4     4     5 1   
     5     5     6 1   
     6     6     7 2   
     7     7     8 1   
     8     8     9 1   
     9     9    10 1   
    10    10    11 1   
    11    11    12 1   
    12    12    13 1   
    13    13    14 2   
    14    14    15 1   
    15    15    16 2   
    16    15    17 1   
    17    17    18 1   
    18    18    19 1   
    19    19    20 1   
    20    19    21 1   
    21    21    22 1   
    22     1    23 1   
    23     5    24 1   
    24     5    25 1   
    25     6    26 1   
    26     7    27 1   
    27     8    28 1   
    28     8    29 1   
    29     9    30 1   
    30     9    31 1   
    31    10    32 1   
    32    10    33 1   
    33    11    34 1   
    34    11    35 1   
    35    12    36 1   
    36    12    37 1   
    37    13    38 1   
    38    14    39 1   
    39    17    40 1   
    40    18    41 1   
    41    18    42 1   
    42    19    43 1   
    43    20    44 1   
    44    20    45 1   
    45    20    46 1   
    46    21    47 1   
    47    21    48 1   
    48    22    49 1   
    49    22    50 1   
    50    22    51 1   
@<TRIPOS>SUBSTRUCTURE
     1 MOL         1 TEMP              0 ****  ****    0 ROOT
