
     RDKit          3D

 35 37  0  0  0  0  0  0  0  0999 V2000
    2.1948   -5.7685   -2.5823 C   0  0  0  0  0  0  0  0  0  0  0  0
    1.9065   -4.4107   -2.0614 C   0  0  0  0  0  0  0  0  0  0  0  0
    2.6829   -3.2703   -2.0890 C   0  0  0  0  0  0  0  0  0  0  0  0
    2.1234   -2.1494   -1.5123 N   0  0  0  0  0  0  0  0  0  0  0  0
    0.9293   -2.4440   -1.0580 C   0  0  0  0  0  0  0  0  0  0  0  0
    0.0188   -1.6635   -0.4220 N   0  0  0  0  0  0  0  0  0  0  0  0
    0.1785   -0.3328   -0.1414 C   0  0  0  0  0  0  0  0  0  0  0  0
    1.1672    0.3310   -0.4532 O   0  0  0  0  0  0  0  0  0  0  0  0
   -1.0213    0.2973    0.6177 C   0  0  0  0  0  0  0  0  0  0  0  0
   -2.1611   -0.4155    0.9241 C   0  0  0  0  0  0  0  0  0  0  0  0
   -2.3760   -1.6409    0.6445 O   0  0  0  0  0  0  0  0  0  0  0  0
   -3.2838    0.3127    1.6480 C   0  0  0  0  0  0  0  0  0  0  0  0
   -4.2141   -0.3908    2.4408 C   0  0  0  0  0  0  0  0  0  0  0  0
   -5.2979    0.2494    3.0559 C   0  0  0  0  0  0  0  0  0  0  0  0
   -5.4838    1.6187    2.8929 C   0  0  0  0  0  0  0  0  0  0  0  0
   -4.5823    2.3423    2.1192 C   0  0  0  0  0  0  0  0  0  0  0  0
   -3.5110    1.6778    1.5032 C   0  0  0  0  0  0  0  0  0  0  0  0
   -2.2874    2.5906    0.6623 S   0  0  0  0  0  0  0  0  0  0  0  0
   -2.5425    2.5491   -0.7627 O   0  0  0  0  0  0  0  0  0  0  0  0
   -2.1814    3.8732    1.3409 O   0  0  0  0  0  0  0  0  0  0  0  0
   -0.9211    1.6820    1.0617 N   0  0  0  0  0  0  0  0  0  0  0  0
    0.3452    2.4205    0.9525 C   0  0  0  0  0  0  0  0  0  0  0  0
    0.4187   -4.0612   -1.2827 S   0  0  0  0  0  0  0  0  0  0  0  0
    1.4604   -6.0590   -3.3407 H   0  0  0  0  0  0  0  0  0  0  0  0
    2.1735   -6.5081   -1.7753 H   0  0  0  0  0  0  0  0  0  0  0  0
    3.1864   -5.8074   -3.0453 H   0  0  0  0  0  0  0  0  0  0  0  0
    3.6733   -3.1952   -2.5196 H   0  0  0  0  0  0  0  0  0  0  0  0
   -0.8773   -2.0711   -0.1283 H   0  0  0  0  0  0  0  0  0  0  0  0
   -4.0945   -1.4656    2.5696 H   0  0  0  0  0  0  0  0  0  0  0  0
   -5.9920   -0.3335    3.6539 H   0  0  0  0  0  0  0  0  0  0  0  0
   -6.3200    2.1184    3.3717 H   0  0  0  0  0  0  0  0  0  0  0  0
   -4.6999    3.4163    2.0036 H   0  0  0  0  0  0  0  0  0  0  0  0
    1.1645    1.8538    1.4060 H   0  0  0  0  0  0  0  0  0  0  0  0
    0.2930    3.3526    1.5251 H   0  0  0  0  0  0  0  0  0  0  0  0
    0.5796    2.6707   -0.0862 H   0  0  0  0  0  0  0  0  0  0  0  0
  1  2  1  0
  2  3  2  0
  3  4  1  0
  4  5  2  0
  5  6  1  0
  6  7  1  0
  7  8  2  0
  7  9  1  0
  9 10  2  0
 10 11  1  0
 10 12  1  0
 12 13  2  0
 13 14  1  0
 14 15  2  0
 15 16  1  0
 16 17  2  0
 17 18  1  0
 18 19  2  0
 18 20  2  0
 18 21  1  0
 21 22  1  0
  5 23  1  0
 23  2  1  0
 21  9  1  0
 17 12  1  0
  1 24  1  0
  1 25  1  0
  1 26  1  0
  3 27  1  0
  6 28  1  0
 13 29  1  0
 14 30  1  0
 15 31  1  0
 16 32  1  0
 22 33  1  0
 22 34  1  0
 22 35  1  0
M  CHG  1  11  -1
M  END
$$$$
