@<TRIPOS>MOLECULE
MOL
   35    37     1     0     0
SMALL
bcc


@<TRIPOS>ATOM
      1 C1           2.1950    -5.7690    -2.5820 c3         1 MOL       0.003200
      2 C2           1.9070    -4.4110    -2.0610 cc         1 MOL      -0.230700
      3 C3           2.6830    -3.2700    -2.0890 cd         1 MOL       0.369200
      4 N1           2.1230    -2.1490    -1.5120 nd         1 MOL      -0.690000
      5 C4           0.9290    -2.4440    -1.0580 cc         1 MOL       0.648300
      6 N2           0.0190    -1.6630    -0.4220 ns         1 MOL      -0.542400
      7 C5           0.1780    -0.3330    -0.1410 c2         1 MOL       0.740300
      8 O1           1.1670     0.3310    -0.4530 o          1 MOL      -0.647300
      9 C6          -1.0210     0.2970     0.6180 ce         1 MOL      -0.338200
     10 C7          -2.1610    -0.4150     0.9240 c          1 MOL       0.572900
     11 O2          -2.3760    -1.6410     0.6440 o          1 MOL      -0.699100
     12 C8          -3.2840     0.3130     1.6480 ca         1 MOL      -0.020600
     13 C9          -4.2140    -0.3910     2.4410 ca         1 MOL      -0.122000
     14 C10         -5.2980     0.2490     3.0560 ca         1 MOL      -0.104000
     15 C11         -5.4840     1.6190     2.8930 ca         1 MOL      -0.166000
     16 C12         -4.5820     2.3420     2.1190 ca         1 MOL      -0.035000
     17 C13         -3.5110     1.6780     1.5030 ca         1 MOL      -0.322500
     18 S1          -2.2870     2.5910     0.6620 sy         1 MOL       1.506200
     19 O3          -2.5420     2.5490    -0.7630 o          1 MOL      -0.676300
     20 O4          -2.1810     3.8730     1.3410 o          1 MOL      -0.676300
     21 N3          -0.9210     1.6820     1.0620 nh         1 MOL      -0.623300
     22 C14          0.3450     2.4210     0.9530 c3         1 MOL       0.213100
     23 S2           0.4190    -4.0610    -1.2830 ss         1 MOL      -0.283300
     24 H1           1.4600    -6.0590    -3.3410 hc         1 MOL       0.030700
     25 H2           2.1740    -6.5080    -1.7750 hc         1 MOL       0.030700
     26 H3           3.1860    -5.8070    -3.0450 hc         1 MOL       0.030700
     27 H4           3.6730    -3.1950    -2.5200 h4         1 MOL       0.023100
     28 H5          -0.8770    -2.0710    -0.1280 hn         1 MOL       0.355500
     29 H6          -4.0950    -1.4660     2.5700 ha         1 MOL       0.155000
     30 H7          -5.9920    -0.3340     3.6540 ha         1 MOL       0.116000
     31 H8          -6.3200     2.1180     3.3720 ha         1 MOL       0.119000
     32 H9          -4.7000     3.4160     2.0040 ha         1 MOL       0.141000
     33 H10          1.1650     1.8540     1.4060 h1         1 MOL       0.040700
     34 H11          0.2930     3.3530     1.5250 h1         1 MOL       0.040700
     35 H12          0.5800     2.6710    -0.0860 h1         1 MOL       0.040700
@<TRIPOS>BOND
     1     1     2 1   
     2     2     3 2   
     3     3     4 1   
     4     4     5 2   
     5     5     6 1   
     6     6     7 1   
     7     7     8 1   
     8     7     9 2   
     9     9    10 1   
    10    10    11 2   
    11    10    12 1   
    12    12    13 ar  
    13    13    14 ar  
    14    14    15 ar  
    15    15    16 ar  
    16    16    17 ar  
    17    17    18 1   
    18    18    19 2   
    19    18    20 2   
    20    18    21 1   
    21    21    22 1   
    22     5    23 1   
    23    23     2 1   
    24    21     9 1   
    25    17    12 ar  
    26     1    24 1   
    27     1    25 1   
    28     1    26 1   
    29     3    27 1   
    30     6    28 1   
    31    13    29 1   
    32    14    30 1   
    33    15    31 1   
    34    16    32 1   
    35    22    33 1   
    36    22    34 1   
    37    22    35 1   
@<TRIPOS>SUBSTRUCTURE
     1 MOL         1 TEMP              0 ****  ****    0 ROOT
