@<TRIPOS>MOLECULE
MOL
  128   133     1     0     0
SMALL
bcc


@<TRIPOS>ATOM
      1 C1          -2.4110     9.2610    -3.0840 c3         1 MOL      -0.059900
      2 C2          -2.7770     7.9660    -2.4090 c2         1 MOL      -0.121400
      3 C3          -2.7280     8.0120    -0.9060 c3         1 MOL      -0.059900
      4 C4          -3.0980     6.8770    -3.1350 c2         1 MOL      -0.178200
      5 C5          -3.5210     5.5280    -2.6110 c3         1 MOL      -0.057200
      6 C6          -2.3290     4.5680    -2.5390 c3         1 MOL      -0.087400
      7 C7          -2.5990     3.1140    -2.0270 c3         1 MOL       0.178800
      8 C8          -3.6730     2.4380    -2.8890 c3         1 MOL      -0.122100
      9 O1          -2.9250     3.1150    -0.6250 os         1 MOL      -0.451600
     10 C9          -4.2570     3.3600    -0.2010 c3         1 MOL       0.310900
     11 O2          -4.2980     4.4960     0.6730 os         1 MOL      -0.451600
     12 C10         -3.3600     4.4090     1.7700 c3         1 MOL       0.077100
     13 C11         -3.8740     5.3770     2.8440 c3         1 MOL       0.125400
     14 O3          -4.0130     6.6850     2.2840 oh         1 MOL      -0.597800
     15 C12         -3.1670     2.9690     2.2870 c3         1 MOL       0.078100
     16 O4          -2.8280     2.9060     3.6780 oh         1 MOL      -0.604800
     17 C13         -4.4360     2.1490     2.0420 c3         1 MOL       0.129100
     18 O5          -4.2270     0.8110     2.5230 oh         1 MOL      -0.597800
     19 C14         -4.8210     2.1290     0.5490 c3         1 MOL       0.108100
     20 O6          -6.2600     2.1070     0.4440 oh         1 MOL      -0.583800
     21 C15         -1.2220     2.3160    -2.1180 c3         1 MOL      -0.052700
     22 C16         -0.1700     2.9300    -1.1340 c3         1 MOL      -0.073400
     23 C17          0.2280     1.8230    -0.1540 c3         1 MOL      -0.082400
     24 C18          0.1000     0.5340    -0.9750 c3         1 MOL      -0.043000
     25 C19          1.3230     0.5390    -1.9600 c3         1 MOL      -0.091100
     26 C20         -1.2510     0.8040    -1.7120 c3         1 MOL      -0.055700
     27 C21         -1.4470    -0.2890    -2.7750 c3         1 MOL       0.148100
     28 O7          -2.6450    -0.1070    -3.5100 oh         1 MOL      -0.605800
     29 C22         -1.5060    -1.6800    -2.1030 c3         1 MOL      -0.108400
     30 C23         -0.2840    -1.9980    -1.2010 c3         1 MOL      -0.050700
     31 C24         -0.2090    -3.4800    -0.6280 c3         1 MOL      -0.026000
     32 C25         -1.3990    -3.7990     0.3090 c3         1 MOL      -0.089100
     33 C26         -0.2960    -4.4690    -1.8300 c3         1 MOL      -0.071400
     34 C27          0.0310    -5.9120    -1.4800 c3         1 MOL      -0.113400
     35 C28          1.4040    -6.0410    -0.8450 c3         1 MOL       0.144100
     36 O8           1.6150    -7.4160    -0.5170 oh         1 MOL      -0.598800
     37 C29          1.6250    -5.1400     0.4100 c3         1 MOL      -0.025000
     38 C30          0.8790    -5.6980     1.6390 c3         1 MOL      -0.081100
     39 C31          3.1460    -5.2570     0.7230 c3         1 MOL      -0.081100
     40 C32          1.2140    -3.6450     0.0660 c3         1 MOL      -0.042700
     41 C33          1.4070    -2.5690     1.1940 c3         1 MOL       0.154100
     42 O9           2.6860    -2.7340     1.8210 os         1 MOL      -0.413600
     43 C34          2.9210    -1.8900     2.9550 c3         1 MOL       0.304900
     44 O10          3.5840    -0.7010     2.5240 os         1 MOL      -0.443600
     45 C35          3.8570     0.2010     3.6130 c3         1 MOL       0.104100
     46 C36          4.4600     1.4750     3.0130 c3         1 MOL       0.143400
     47 O11          3.5600     2.0080     2.0370 oh         1 MOL      -0.601800
     48 C37          4.8070    -0.4510     4.6220 c3         1 MOL       0.123100
     49 O12          5.0370     0.4050     5.7420 oh         1 MOL      -0.595800
     50 C38          4.2010    -1.7670     5.1120 c3         1 MOL       0.109100
     51 O13          5.1490    -2.4300     5.9640 oh         1 MOL      -0.606800
     52 C39          3.8170    -2.6680     3.9400 c3         1 MOL       0.085100
     53 O14          3.1470    -3.8220     4.4710 oh         1 MOL      -0.606800
     54 C40          1.3040    -1.1470     0.5940 c3         1 MOL      -0.105400
     55 C41         -0.0100    -0.8420    -0.1620 c3         1 MOL      -0.014000
     56 C42         -1.1360    -0.7440     0.9110 c3         1 MOL      -0.102100
     57 H1          -2.4650     9.1910    -4.1750 hc         1 MOL       0.041367
     58 H2          -3.0930    10.0580    -2.7680 hc         1 MOL       0.041367
     59 H3          -1.3890     9.5520    -2.8200 hc         1 MOL       0.041367
     60 H4          -1.7650     8.4150    -0.5730 hc         1 MOL       0.041367
     61 H5          -3.5230     8.6580    -0.5220 hc         1 MOL       0.041367
     62 H6          -2.8340     7.0290    -0.4420 hc         1 MOL       0.041367
     63 H7          -3.0770     6.9490    -4.2220 ha         1 MOL       0.118000
     64 H8          -4.2900     5.1450    -3.2900 hc         1 MOL       0.057700
     65 H9          -4.0010     5.6390    -1.6370 hc         1 MOL       0.057700
     66 H10         -1.8800     4.5050    -3.5400 hc         1 MOL       0.049200
     67 H11         -1.5830     5.0470    -1.8940 hc         1 MOL       0.049200
     68 H12         -4.0110     1.5030    -2.4350 hc         1 MOL       0.056033
     69 H13         -4.5800     3.0390    -2.9940 hc         1 MOL       0.056033
     70 H14         -3.3080     2.2590    -3.9050 hc         1 MOL       0.056033
     71 H15         -4.9220     3.6080    -1.0300 h2         1 MOL       0.101700
     72 H16         -2.4000     4.7940     1.4030 h1         1 MOL       0.072700
     73 H17         -3.1880     5.4480     3.6920 h1         1 MOL       0.054700
     74 H18         -4.8620     5.0730     3.2070 h1         1 MOL       0.054700
     75 H19         -4.4480     6.5540     1.4190 ho         1 MOL       0.411000
     76 H20         -2.3390     2.4850     1.7590 h1         1 MOL       0.085700
     77 H21         -1.9250     3.2640     3.7710 ho         1 MOL       0.414000
     78 H22         -5.2580     2.5500     2.6470 h1         1 MOL       0.059700
     79 H23         -3.8660     0.9200     3.4250 ho         1 MOL       0.420000
     80 H24         -4.4680     1.2060     0.0750 h1         1 MOL       0.118700
     81 H25         -6.5950     2.9370     0.8280 ho         1 MOL       0.404000
     82 H26         -0.8420     2.3970    -3.1450 hc         1 MOL       0.056700
     83 H27         -0.5240     3.7960    -0.5690 hc         1 MOL       0.047200
     84 H28          0.7030     3.2740    -1.7030 hc         1 MOL       0.047200
     85 H29          1.2330     1.9840     0.2470 hc         1 MOL       0.058200
     86 H30         -0.4630     1.8570     0.6890 hc         1 MOL       0.058200
     87 H31          2.2650     0.6680    -1.4160 hc         1 MOL       0.035700
     88 H32          1.4200    -0.3670    -2.5580 hc         1 MOL       0.035700
     89 H33          1.2720     1.3560    -2.6870 hc         1 MOL       0.035700
     90 H34         -2.0880     0.7220    -1.0100 hc         1 MOL       0.066700
     91 H35         -0.6340    -0.2630    -3.5080 h1         1 MOL       0.037700
     92 H36         -2.7230    -0.8410    -4.1440 ho         1 MOL       0.397000
     93 H37         -2.4420    -1.7620    -1.5400 hc         1 MOL       0.047700
     94 H38         -1.5910    -2.4210    -2.9060 hc         1 MOL       0.047700
     95 H39          0.5620    -1.9830    -1.8980 hc         1 MOL       0.046700
     96 H40         -1.7080    -4.8460     0.2630 hc         1 MOL       0.040033
     97 H41         -2.2950    -3.2310     0.0430 hc         1 MOL       0.040033
     98 H42         -1.1820    -3.6060     1.3600 hc         1 MOL       0.040033
     99 H43          0.3910    -4.1460    -2.6230 hc         1 MOL       0.042200
    100 H44         -1.3020    -4.4550    -2.2650 hc         1 MOL       0.042200
    101 H45          0.0010    -6.5160    -2.3970 hc         1 MOL       0.048200
    102 H46         -0.7330    -6.3600    -0.8360 hc         1 MOL       0.048200
    103 H47          2.1560    -5.7780    -1.6020 h1         1 MOL       0.030700
    104 H48          1.5440    -7.9310    -1.3390 ho         1 MOL       0.398000
    105 H49          0.9430    -5.0160     2.4920 hc         1 MOL       0.039200
    106 H50         -0.1760    -5.8890     1.4400 hc         1 MOL       0.039200
    107 H51          1.3110    -6.6520     1.9650 hc         1 MOL       0.039200
    108 H52          3.7450    -4.6870     0.0040 hc         1 MOL       0.039200
    109 H53          3.3990    -4.9180     1.7280 hc         1 MOL       0.039200
    110 H54          3.4900    -6.2970     0.6770 hc         1 MOL       0.039200
    111 H55          1.9480    -3.3650    -0.7090 hc         1 MOL       0.056700
    112 H56          0.6550    -2.7190     1.9710 h1         1 MOL       0.046700
    113 H57          1.9660    -1.6440     3.4390 h2         1 MOL       0.057700
    114 H58          2.9030     0.4700     4.0850 h1         1 MOL       0.065700
    115 H59          5.4050     1.2640     2.5020 h1         1 MOL       0.062200
    116 H60          4.6310     2.2400     3.7750 h1         1 MOL       0.062200
    117 H61          3.3630     1.2610     1.4390 ho         1 MOL       0.413000
    118 H62          5.7810    -0.6520     4.1580 h1         1 MOL       0.064700
    119 H63          5.5000    -0.1530     6.4010 ho         1 MOL       0.425000
    120 H64          3.3270    -1.5680     5.7460 h1         1 MOL       0.063700
    121 H65          4.7770    -3.3240     6.1110 ho         1 MOL       0.427000
    122 H66          4.7200    -3.0330     3.4360 h1         1 MOL       0.077700
    123 H67          2.8590    -4.3420     3.6960 ho         1 MOL       0.425000
    124 H68          1.4250    -0.3960     1.3820 hc         1 MOL       0.060200
    125 H69          2.1730    -1.0180    -0.0610 hc         1 MOL       0.060200
    126 H70         -1.1290    -1.5770     1.6130 hc         1 MOL       0.044700
    127 H71         -1.0180     0.1340     1.5510 hc         1 MOL       0.044700
    128 H72         -2.1390    -0.7110     0.4810 hc         1 MOL       0.044700
@<TRIPOS>BOND
     1     1     2 1   
     2     2     3 1   
     3     2     4 2   
     4     4     5 1   
     5     5     6 1   
     6     6     7 1   
     7     7     8 1   
     8     7     9 1   
     9     9    10 1   
    10    10    11 1   
    11    11    12 1   
    12    12    13 1   
    13    13    14 1   
    14    12    15 1   
    15    15    16 1   
    16    15    17 1   
    17    17    18 1   
    18    17    19 1   
    19    19    20 1   
    20     7    21 1   
    21    21    22 1   
    22    22    23 1   
    23    23    24 1   
    24    24    25 1   
    25    24    26 1   
    26    26    27 1   
    27    27    28 1   
    28    27    29 1   
    29    29    30 1   
    30    30    31 1   
    31    31    32 1   
    32    31    33 1   
    33    33    34 1   
    34    34    35 1   
    35    35    36 1   
    36    35    37 1   
    37    37    38 1   
    38    37    39 1   
    39    37    40 1   
    40    40    41 1   
    41    41    42 1   
    42    42    43 1   
    43    43    44 1   
    44    44    45 1   
    45    45    46 1   
    46    46    47 1   
    47    45    48 1   
    48    48    49 1   
    49    48    50 1   
    50    50    51 1   
    51    50    52 1   
    52    52    53 1   
    53    41    54 1   
    54    54    55 1   
    55    55    56 1   
    56    19    10 1   
    57    26    21 1   
    58    55    30 1   
    59    55    24 1   
    60    40    31 1   
    61    52    43 1   
    62     1    57 1   
    63     1    58 1   
    64     1    59 1   
    65     3    60 1   
    66     3    61 1   
    67     3    62 1   
    68     4    63 1   
    69     5    64 1   
    70     5    65 1   
    71     6    66 1   
    72     6    67 1   
    73     8    68 1   
    74     8    69 1   
    75     8    70 1   
    76    10    71 1   
    77    12    72 1   
    78    13    73 1   
    79    13    74 1   
    80    14    75 1   
    81    15    76 1   
    82    16    77 1   
    83    17    78 1   
    84    18    79 1   
    85    19    80 1   
    86    20    81 1   
    87    21    82 1   
    88    22    83 1   
    89    22    84 1   
    90    23    85 1   
    91    23    86 1   
    92    25    87 1   
    93    25    88 1   
    94    25    89 1   
    95    26    90 1   
    96    27    91 1   
    97    28    92 1   
    98    29    93 1   
    99    29    94 1   
   100    30    95 1   
   101    32    96 1   
   102    32    97 1   
   103    32    98 1   
   104    33    99 1   
   105    33   100 1   
   106    34   101 1   
   107    34   102 1   
   108    35   103 1   
   109    36   104 1   
   110    38   105 1   
   111    38   106 1   
   112    38   107 1   
   113    39   108 1   
   114    39   109 1   
   115    39   110 1   
   116    40   111 1   
   117    41   112 1   
   118    43   113 1   
   119    45   114 1   
   120    46   115 1   
   121    46   116 1   
   122    47   117 1   
   123    48   118 1   
   124    49   119 1   
   125    50   120 1   
   126    51   121 1   
   127    52   122 1   
   128    53   123 1   
   129    54   124 1   
   130    54   125 1   
   131    56   126 1   
   132    56   127 1   
   133    56   128 1   
@<TRIPOS>SUBSTRUCTURE
     1 MOL         1 TEMP              0 ****  ****    0 ROOT
