
     RDKit          3D

128133  0  0  0  0  0  0  0  0999 V2000
   -2.4111    9.2613   -3.0839 C   0  0  0  0  0  0  0  0  0  0  0  0
   -2.7769    7.9656   -2.4093 C   0  0  0  0  0  0  0  0  0  0  0  0
   -2.7275    8.0120   -0.9062 C   0  0  0  0  0  0  0  0  0  0  0  0
   -3.0984    6.8765   -3.1349 C   0  0  0  0  0  0  0  0  0  0  0  0
   -3.5214    5.5282   -2.6110 C   0  0  0  0  0  0  0  0  0  0  0  0
   -2.3289    4.5681   -2.5387 C   0  0  0  0  0  0  0  0  0  0  0  0
   -2.5985    3.1141   -2.0273 C   0  0  2  0  0  0  0  0  0  0  0  0
   -3.6732    2.4379   -2.8892 C   0  0  0  0  0  0  0  0  0  0  0  0
   -2.9246    3.1152   -0.6250 O   0  0  0  0  0  0  0  0  0  0  0  0
   -4.2571    3.3600   -0.2011 C   0  0  2  0  0  0  0  0  0  0  0  0
   -4.2984    4.4958    0.6732 O   0  0  0  0  0  0  0  0  0  0  0  0
   -3.3600    4.4085    1.7698 C   0  0  1  0  0  0  0  0  0  0  0  0
   -3.8744    5.3765    2.8435 C   0  0  0  0  0  0  0  0  0  0  0  0
   -4.0127    6.6849    2.2839 O   0  0  0  0  0  0  0  0  0  0  0  0
   -3.1668    2.9686    2.2870 C   0  0  1  0  0  0  0  0  0  0  0  0
   -2.8276    2.9061    3.6777 O   0  0  0  0  0  0  0  0  0  0  0  0
   -4.4355    2.1494    2.0417 C   0  0  2  0  0  0  0  0  0  0  0  0
   -4.2272    0.8108    2.5230 O   0  0  0  0  0  0  0  0  0  0  0  0
   -4.8209    2.1286    0.5491 C   0  0  1  0  0  0  0  0  0  0  0  0
   -6.2604    2.1075    0.4436 O   0  0  0  0  0  0  0  0  0  0  0  0
   -1.2223    2.3162   -2.1181 C   0  0  1  0  0  0  0  0  0  0  0  0
   -0.1696    2.9297   -1.1344 C   0  0  0  0  0  0  0  0  0  0  0  0
    0.2275    1.8235   -0.1539 C   0  0  0  0  0  0  0  0  0  0  0  0
    0.1003    0.5340   -0.9754 C   0  0  2  0  0  0  0  0  0  0  0  0
    1.3225    0.5389   -1.9602 C   0  0  0  0  0  0  0  0  0  0  0  0
   -1.2507    0.8043   -1.7116 C   0  0  2  0  0  0  0  0  0  0  0  0
   -1.4470   -0.2886   -2.7750 C   0  0  2  0  0  0  0  0  0  0  0  0
   -2.6451   -0.1074   -3.5100 O   0  0  0  0  0  0  0  0  0  0  0  0
   -1.5060   -1.6803   -2.1032 C   0  0  0  0  0  0  0  0  0  0  0  0
   -0.2837   -1.9976   -1.2006 C   0  0  2  0  0  0  0  0  0  0  0  0
   -0.2095   -3.4801   -0.6281 C   0  0  1  0  0  0  0  0  0  0  0  0
   -1.3995   -3.7985    0.3090 C   0  0  0  0  0  0  0  0  0  0  0  0
   -0.2958   -4.4688   -1.8298 C   0  0  0  0  0  0  0  0  0  0  0  0
    0.0311   -5.9125   -1.4800 C   0  0  0  0  0  0  0  0  0  0  0  0
    1.4043   -6.0412   -0.8448 C   0  0  2  0  0  0  0  0  0  0  0  0
    1.6148   -7.4159   -0.5168 O   0  0  0  0  0  0  0  0  0  0  0  0
    1.6251   -5.1402    0.4105 C   0  0  0  0  0  0  0  0  0  0  0  0
    0.8794   -5.6978    1.6388 C   0  0  0  0  0  0  0  0  0  0  0  0
    3.1462   -5.2567    0.7234 C   0  0  0  0  0  0  0  0  0  0  0  0
    1.2141   -3.6446    0.0660 C   0  0  2  0  0  0  0  0  0  0  0  0
    1.4075   -2.5694    1.1940 C   0  0  0  0  0  0  0  0  0  0  0  0
    2.6858   -2.7339    1.8213 O   0  0  0  0  0  0  0  0  0  0  0  0
    2.9215   -1.8896    2.9554 C   0  0  2  0  0  0  0  0  0  0  0  0
    3.5836   -0.7006    2.5238 O   0  0  0  0  0  0  0  0  0  0  0  0
    3.8573    0.2009    3.6128 C   0  0  2  0  0  0  0  0  0  0  0  0
    4.4598    1.4747    3.0131 C   0  0  0  0  0  0  0  0  0  0  0  0
    3.5598    2.0076    2.0365 O   0  0  0  0  0  0  0  0  0  0  0  0
    4.8070   -0.4511    4.6219 C   0  0  1  0  0  0  0  0  0  0  0  0
    5.0373    0.4048    5.7415 O   0  0  0  0  0  0  0  0  0  0  0  0
    4.2009   -1.7666    5.1123 C   0  0  2  0  0  0  0  0  0  0  0  0
    5.1490   -2.4300    5.9637 O   0  0  0  0  0  0  0  0  0  0  0  0
    3.8173   -2.6676    3.9398 C   0  0  1  0  0  0  0  0  0  0  0  0
    3.1470   -3.8223    4.4712 O   0  0  0  0  0  0  0  0  0  0  0  0
    1.3040   -1.1473    0.5938 C   0  0  0  0  0  0  0  0  0  0  0  0
   -0.0097   -0.8416   -0.1617 C   0  0  1  0  0  0  0  0  0  0  0  0
   -1.1356   -0.7444    0.9113 C   0  0  0  0  0  0  0  0  0  0  0  0
   -2.4653    9.1914   -4.1754 H   0  0  0  0  0  0  0  0  0  0  0  0
   -3.0929   10.0577   -2.7679 H   0  0  0  0  0  0  0  0  0  0  0  0
   -1.3891    9.5520   -2.8196 H   0  0  0  0  0  0  0  0  0  0  0  0
   -1.7648    8.4146   -0.5732 H   0  0  0  0  0  0  0  0  0  0  0  0
   -3.5234    8.6581   -0.5222 H   0  0  0  0  0  0  0  0  0  0  0  0
   -2.8343    7.0288   -0.4423 H   0  0  0  0  0  0  0  0  0  0  0  0
   -3.0770    6.9494   -4.2222 H   0  0  0  0  0  0  0  0  0  0  0  0
   -4.2902    5.1451   -3.2898 H   0  0  0  0  0  0  0  0  0  0  0  0
   -4.0008    5.6395   -1.6375 H   0  0  0  0  0  0  0  0  0  0  0  0
   -1.8797    4.5046   -3.5396 H   0  0  0  0  0  0  0  0  0  0  0  0
   -1.5834    5.0473   -1.8939 H   0  0  0  0  0  0  0  0  0  0  0  0
   -4.0108    1.5026   -2.4347 H   0  0  0  0  0  0  0  0  0  0  0  0
   -4.5798    3.0394   -2.9945 H   0  0  0  0  0  0  0  0  0  0  0  0
   -3.3076    2.2589   -3.9051 H   0  0  0  0  0  0  0  0  0  0  0  0
   -4.9218    3.6084   -1.0300 H   0  0  0  0  0  0  0  0  0  0  0  0
   -2.4004    4.7944    1.4027 H   0  0  0  0  0  0  0  0  0  0  0  0
   -3.1880    5.4478    3.6917 H   0  0  0  0  0  0  0  0  0  0  0  0
   -4.8615    5.0734    3.2072 H   0  0  0  0  0  0  0  0  0  0  0  0
   -4.4479    6.5539    1.4187 H   0  0  0  0  0  0  0  0  0  0  0  0
   -2.3392    2.4851    1.7588 H   0  0  0  0  0  0  0  0  0  0  0  0
   -1.9249    3.2641    3.7712 H   0  0  0  0  0  0  0  0  0  0  0  0
   -5.2579    2.5499    2.6474 H   0  0  0  0  0  0  0  0  0  0  0  0
   -3.8662    0.9199    3.4249 H   0  0  0  0  0  0  0  0  0  0  0  0
   -4.4681    1.2061    0.0748 H   0  0  0  0  0  0  0  0  0  0  0  0
   -6.5951    2.9373    0.8277 H   0  0  0  0  0  0  0  0  0  0  0  0
   -0.8418    2.3974   -3.1448 H   0  0  0  0  0  0  0  0  0  0  0  0
   -0.5242    3.7957   -0.5686 H   0  0  0  0  0  0  0  0  0  0  0  0
    0.7025    3.2742   -1.7027 H   0  0  0  0  0  0  0  0  0  0  0  0
    1.2331    1.9844    0.2469 H   0  0  0  0  0  0  0  0  0  0  0  0
   -0.4632    1.8575    0.6890 H   0  0  0  0  0  0  0  0  0  0  0  0
    2.2646    0.6680   -1.4160 H   0  0  0  0  0  0  0  0  0  0  0  0
    1.4204   -0.3670   -2.5584 H   0  0  0  0  0  0  0  0  0  0  0  0
    1.2717    1.3561   -2.6867 H   0  0  0  0  0  0  0  0  0  0  0  0
   -2.0884    0.7216   -1.0105 H   0  0  0  0  0  0  0  0  0  0  0  0
   -0.6343   -0.2633   -3.5077 H   0  0  0  0  0  0  0  0  0  0  0  0
   -2.7231   -0.8413   -4.1437 H   0  0  0  0  0  0  0  0  0  0  0  0
   -2.4424   -1.7617   -1.5402 H   0  0  0  0  0  0  0  0  0  0  0  0
   -1.5911   -2.4207   -2.9061 H   0  0  0  0  0  0  0  0  0  0  0  0
    0.5619   -1.9833   -1.8981 H   0  0  0  0  0  0  0  0  0  0  0  0
   -1.7075   -4.8458    0.2632 H   0  0  0  0  0  0  0  0  0  0  0  0
   -2.2951   -3.2313    0.0432 H   0  0  0  0  0  0  0  0  0  0  0  0
   -1.1821   -3.6064    1.3600 H   0  0  0  0  0  0  0  0  0  0  0  0
    0.3913   -4.1457   -2.6232 H   0  0  0  0  0  0  0  0  0  0  0  0
   -1.3023   -4.4547   -2.2646 H   0  0  0  0  0  0  0  0  0  0  0  0
    0.0008   -6.5162   -2.3968 H   0  0  0  0  0  0  0  0  0  0  0  0
   -0.7329   -6.3598   -0.8357 H   0  0  0  0  0  0  0  0  0  0  0  0
    2.1557   -5.7782   -1.6018 H   0  0  0  0  0  0  0  0  0  0  0  0
    1.5439   -7.9308   -1.3389 H   0  0  0  0  0  0  0  0  0  0  0  0
    0.9430   -5.0158    2.4920 H   0  0  0  0  0  0  0  0  0  0  0  0
   -0.1758   -5.8887    1.4397 H   0  0  0  0  0  0  0  0  0  0  0  0
    1.3106   -6.6520    1.9646 H   0  0  0  0  0  0  0  0  0  0  0  0
    3.7446   -4.6871    0.0039 H   0  0  0  0  0  0  0  0  0  0  0  0
    3.3990   -4.9179    1.7284 H   0  0  0  0  0  0  0  0  0  0  0  0
    3.4900   -6.2968    0.6774 H   0  0  0  0  0  0  0  0  0  0  0  0
    1.9478   -3.3645   -0.7089 H   0  0  0  0  0  0  0  0  0  0  0  0
    0.6546   -2.7185    1.9713 H   0  0  0  0  0  0  0  0  0  0  0  0
    1.9665   -1.6439    3.4391 H   0  0  0  0  0  0  0  0  0  0  0  0
    2.9028    0.4700    4.0850 H   0  0  0  0  0  0  0  0  0  0  0  0
    5.4050    1.2641    2.5020 H   0  0  0  0  0  0  0  0  0  0  0  0
    4.6308    2.2402    3.7752 H   0  0  0  0  0  0  0  0  0  0  0  0
    3.3626    1.2606    1.4387 H   0  0  0  0  0  0  0  0  0  0  0  0
    5.7811   -0.6516    4.1582 H   0  0  0  0  0  0  0  0  0  0  0  0
    5.5002   -0.1528    6.4005 H   0  0  0  0  0  0  0  0  0  0  0  0
    3.3270   -1.5682    5.7459 H   0  0  0  0  0  0  0  0  0  0  0  0
    4.7771   -3.3238    6.1109 H   0  0  0  0  0  0  0  0  0  0  0  0
    4.7204   -3.0330    3.4356 H   0  0  0  0  0  0  0  0  0  0  0  0
    2.8592   -4.3420    3.6962 H   0  0  0  0  0  0  0  0  0  0  0  0
    1.4253   -0.3960    1.3820 H   0  0  0  0  0  0  0  0  0  0  0  0
    2.1731   -1.0176   -0.0608 H   0  0  0  0  0  0  0  0  0  0  0  0
   -1.1291   -1.5766    1.6126 H   0  0  0  0  0  0  0  0  0  0  0  0
   -1.0184    0.1335    1.5509 H   0  0  0  0  0  0  0  0  0  0  0  0
   -2.1387   -0.7114    0.4807 H   0  0  0  0  0  0  0  0  0  0  0  0
  1  2  1  0
  2  3  1  0
  2  4  2  3
  4  5  1  0
  5  6  1  0
  6  7  1  0
  7  8  1  0
  7  9  1  1
  9 10  1  0
 10 11  1  0
 11 12  1  0
 12 13  1  0
 13 14  1  0
 12 15  1  0
 15 16  1  0
 15 17  1  0
 17 18  1  0
 17 19  1  0
 19 20  1  0
  7 21  1  0
 21 22  1  0
 22 23  1  0
 23 24  1  0
 24 25  1  6
 24 26  1  0
 26 27  1  0
 27 28  1  0
 27 29  1  0
 29 30  1  0
 30 31  1  0
 31 32  1  1
 31 33  1  0
 33 34  1  0
 34 35  1  0
 35 36  1  0
 35 37  1  0
 37 38  1  0
 37 39  1  0
 37 40  1  0
 40 41  1  0
 41 42  1  0
 42 43  1  0
 43 44  1  0
 44 45  1  0
 45 46  1  0
 46 47  1  0
 45 48  1  0
 48 49  1  0
 48 50  1  0
 50 51  1  0
 50 52  1  0
 52 53  1  0
 41 54  1  0
 54 55  1  0
 55 56  1  1
 19 10  1  0
 26 21  1  0
 55 30  1  0
 55 24  1  0
 40 31  1  0
 52 43  1  0
  1 57  1  0
  1 58  1  0
  1 59  1  0
  3 60  1  0
  3 61  1  0
  3 62  1  0
  4 63  1  0
  5 64  1  0
  5 65  1  0
  6 66  1  0
  6 67  1  0
  8 68  1  0
  8 69  1  0
  8 70  1  0
 10 71  1  6
 12 72  1  6
 13 73  1  0
 13 74  1  0
 14 75  1  0
 15 76  1  6
 16 77  1  0
 17 78  1  1
 18 79  1  0
 19 80  1  6
 20 81  1  0
 21 82  1  6
 22 83  1  0
 22 84  1  0
 23 85  1  0
 23 86  1  0
 25 87  1  0
 25 88  1  0
 25 89  1  0
 26 90  1  1
 27 91  1  6
 28 92  1  0
 29 93  1  0
 29 94  1  0
 30 95  1  6
 32 96  1  0
 32 97  1  0
 32 98  1  0
 33 99  1  0
 33100  1  0
 34101  1  0
 34102  1  0
 35103  1  6
 36104  1  0
 38105  1  0
 38106  1  0
 38107  1  0
 39108  1  0
 39109  1  0
 39110  1  0
 40111  1  6
 41112  1  0
 43113  1  1
 45114  1  1
 46115  1  0
 46116  1  0
 47117  1  0
 48118  1  6
 49119  1  0
 50120  1  1
 51121  1  0
 52122  1  6
 53123  1  0
 54124  1  0
 54125  1  0
 56126  1  0
 56127  1  0
 56128  1  0
M  END
$$$$
