
     RDKit          3D

 54 54  0  0  0  0  0  0  0  0999 V2000
   -0.3541    6.2897   -5.3248 C   0  0  0  0  0  0  0  0  0  0  0  0
    0.6183    5.2069   -4.8559 C   0  0  0  0  0  0  0  0  0  0  0  0
    0.9289    4.2550   -6.0113 C   0  0  0  0  0  0  0  0  0  0  0  0
    0.0688    4.4028   -3.7621 N   0  0  0  0  0  0  0  0  0  0  0  0
    0.1400    5.0792   -2.4597 C   0  0  0  0  0  0  0  0  0  0  0  0
   -0.6931    4.3359   -1.4007 C   0  0  0  0  0  0  0  0  0  0  0  0
   -2.0684    4.3117   -1.8275 O   0  0  0  0  0  0  0  0  0  0  0  0
   -0.2052    2.9033   -1.1455 C   0  0  0  0  0  0  0  0  0  0  0  0
   -1.0307    2.3673   -0.0989 O   0  0  0  0  0  0  0  0  0  0  0  0
   -0.6076    1.1913    0.4549 C   0  0  0  0  0  0  0  0  0  0  0  0
   -1.1003    0.9287    1.7335 C   0  0  0  0  0  0  0  0  0  0  0  0
   -0.7310   -0.2352    2.4114 C   0  0  0  0  0  0  0  0  0  0  0  0
    0.1381   -1.1593    1.8164 C   0  0  0  0  0  0  0  0  0  0  0  0
    0.5033   -2.4298    2.5493 C   0  0  0  0  0  0  0  0  0  0  0  0
    1.8111   -2.8620    2.1646 O   0  0  0  0  0  0  0  0  0  0  0  0
    2.4013   -3.7773    3.0939 C   0  0  0  0  0  0  0  0  0  0  0  0
    1.6921   -5.1342    3.1333 C   0  0  0  0  0  0  0  0  0  0  0  0
    0.5183   -5.0348    3.9468 O   0  0  0  0  0  0  0  0  0  0  0  0
   -0.2140   -6.2605    4.0409 C   0  0  0  0  0  0  0  0  0  0  0  0
   -1.1021   -6.4492    2.8150 C   0  0  0  0  0  0  0  0  0  0  0  0
   -1.0715   -6.1704    5.2985 C   0  0  0  0  0  0  0  0  0  0  0  0
    0.5934   -0.9064    0.5156 C   0  0  0  0  0  0  0  0  0  0  0  0
    0.2313    0.2642   -0.1589 C   0  0  0  0  0  0  0  0  0  0  0  0
   -1.3264    5.8676   -5.6048 H   0  0  0  0  0  0  0  0  0  0  0  0
    0.0441    6.8093   -6.2024 H   0  0  0  0  0  0  0  0  0  0  0  0
   -0.5218    7.0504   -4.5530 H   0  0  0  0  0  0  0  0  0  0  0  0
    1.5604    5.6753   -4.5460 H   0  0  0  0  0  0  0  0  0  0  0  0
    1.6521    3.4928   -5.7065 H   0  0  0  0  0  0  0  0  0  0  0  0
    0.0275    3.7455   -6.3704 H   0  0  0  0  0  0  0  0  0  0  0  0
    1.3631    4.7983   -6.8573 H   0  0  0  0  0  0  0  0  0  0  0  0
   -0.9177    4.1993   -3.9472 H   0  0  0  0  0  0  0  0  0  0  0  0
   -0.2582    6.0961   -2.5414 H   0  0  0  0  0  0  0  0  0  0  0  0
    1.1837    5.1414   -2.1303 H   0  0  0  0  0  0  0  0  0  0  0  0
   -0.6729    4.9009   -0.4614 H   0  0  0  0  0  0  0  0  0  0  0  0
   -2.5118    3.6449   -1.2641 H   0  0  0  0  0  0  0  0  0  0  0  0
    0.8472    2.9161   -0.8374 H   0  0  0  0  0  0  0  0  0  0  0  0
   -0.3418    2.2901   -2.0424 H   0  0  0  0  0  0  0  0  0  0  0  0
   -1.7731    1.6379    2.2074 H   0  0  0  0  0  0  0  0  0  0  0  0
   -1.1206   -0.4102    3.4108 H   0  0  0  0  0  0  0  0  0  0  0  0
   -0.2279   -3.2016    2.2863 H   0  0  0  0  0  0  0  0  0  0  0  0
    0.4772   -2.2440    3.6310 H   0  0  0  0  0  0  0  0  0  0  0  0
    3.4318   -3.9277    2.7537 H   0  0  0  0  0  0  0  0  0  0  0  0
    2.4403   -3.3137    4.0870 H   0  0  0  0  0  0  0  0  0  0  0  0
    2.3615   -5.8744    3.5853 H   0  0  0  0  0  0  0  0  0  0  0  0
    1.4238   -5.4468    2.1198 H   0  0  0  0  0  0  0  0  0  0  0  0
    0.4781   -7.1034    4.1497 H   0  0  0  0  0  0  0  0  0  0  0  0
   -1.7418   -5.5709    2.6628 H   0  0  0  0  0  0  0  0  0  0  0  0
   -0.5077   -6.5667    1.9023 H   0  0  0  0  0  0  0  0  0  0  0  0
   -1.7389   -7.3347    2.9203 H   0  0  0  0  0  0  0  0  0  0  0  0
   -1.6481   -7.0877    5.4566 H   0  0  0  0  0  0  0  0  0  0  0  0
   -1.7659   -5.3258    5.2382 H   0  0  0  0  0  0  0  0  0  0  0  0
   -0.4427   -5.9989    6.1781 H   0  0  0  0  0  0  0  0  0  0  0  0
    1.2446   -1.6233    0.0201 H   0  0  0  0  0  0  0  0  0  0  0  0
    0.6071    0.4113   -1.1651 H   0  0  0  0  0  0  0  0  0  0  0  0
  1  2  1  0
  2  3  1  0
  2  4  1  0
  4  5  1  0
  5  6  1  0
  6  7  1  0
  6  8  1  0
  8  9  1  0
  9 10  1  0
 10 11  2  0
 11 12  1  0
 12 13  2  0
 13 14  1  0
 14 15  1  0
 15 16  1  0
 16 17  1  0
 17 18  1  0
 18 19  1  0
 19 20  1  0
 19 21  1  0
 13 22  1  0
 22 23  2  0
 23 10  1  0
  1 24  1  0
  1 25  1  0
  1 26  1  0
  2 27  1  0
  3 28  1  0
  3 29  1  0
  3 30  1  0
  4 31  1  0
  5 32  1  0
  5 33  1  0
  6 34  1  0
  7 35  1  0
  8 36  1  0
  8 37  1  0
 11 38  1  0
 12 39  1  0
 14 40  1  0
 14 41  1  0
 16 42  1  0
 16 43  1  0
 17 44  1  0
 17 45  1  0
 19 46  1  0
 20 47  1  0
 20 48  1  0
 20 49  1  0
 21 50  1  0
 21 51  1  0
 21 52  1  0
 22 53  1  0
 23 54  1  0
M  END
$$$$
