@<TRIPOS>MOLECULE
MOL
   54    54     1     0     0
SMALL
bcc


@<TRIPOS>ATOM
      1 C1          -0.3540     6.2900    -5.3250 c3         1 MOL      -0.109100
      2 C2           0.6180     5.2070    -4.8560 c3         1 MOL       0.172500
      3 C3           0.9290     4.2550    -6.0110 c3         1 MOL      -0.109100
      4 N1           0.0690     4.4030    -3.7620 n7         1 MOL      -0.824200
      5 C4           0.1400     5.0790    -2.4600 c3         1 MOL       0.168800
      6 C5          -0.6930     4.3360    -1.4010 c3         1 MOL       0.139100
      7 O1          -2.0680     4.3120    -1.8270 oh         1 MOL      -0.606800
      8 C6          -0.2050     2.9030    -1.1450 c3         1 MOL       0.095400
      9 O2          -1.0310     2.3670    -0.0990 os         1 MOL      -0.351900
     10 C7          -0.6080     1.1910     0.4550 ca         1 MOL       0.126100
     11 C8          -1.1000     0.9290     1.7340 ca         1 MOL      -0.181000
     12 C9          -0.7310    -0.2350     2.4110 ca         1 MOL      -0.085500
     13 C10          0.1380    -1.1590     1.8160 ca         1 MOL      -0.119300
     14 C11          0.5030    -2.4300     2.5490 c3         1 MOL       0.172700
     15 O3           1.8110    -2.8620     2.1650 os         1 MOL      -0.424600
     16 C12          2.4010    -3.7770     3.0940 c3         1 MOL       0.129400
     17 C13          1.6920    -5.1340     3.1330 c3         1 MOL       0.093400
     18 O4           0.5180    -5.0350     3.9470 os         1 MOL      -0.433600
     19 C14         -0.2140    -6.2610     4.0410 c3         1 MOL       0.140100
     20 C15         -1.1020    -6.4490     2.8150 c3         1 MOL      -0.109100
     21 C16         -1.0710    -6.1700     5.2980 c3         1 MOL      -0.109100
     22 C17          0.5930    -0.9060     0.5160 ca         1 MOL      -0.085500
     23 C18          0.2310     0.2640    -0.1590 ca         1 MOL      -0.181000
     24 H1          -1.3260     5.8680    -5.6050 hc         1 MOL       0.038367
     25 H2           0.0440     6.8090    -6.2020 hc         1 MOL       0.038367
     26 H3          -0.5220     7.0500    -4.5530 hc         1 MOL       0.038367
     27 H4           1.5600     5.6750    -4.5460 h1         1 MOL       0.050700
     28 H5           1.6520     3.4930    -5.7070 hc         1 MOL       0.038367
     29 H6           0.0280     3.7450    -6.3700 hc         1 MOL       0.038367
     30 H7           1.3630     4.7980    -6.8570 hc         1 MOL       0.038367
     31 H8          -0.9180     4.1990    -3.9470 hn         1 MOL       0.371800
     32 H9          -0.2580     6.0960    -2.5410 h1         1 MOL       0.040700
     33 H10          1.1840     5.1410    -2.1300 h1         1 MOL       0.040700
     34 H11         -0.6730     4.9010    -0.4610 h1         1 MOL       0.051700
     35 H12         -2.5120     3.6450    -1.2640 ho         1 MOL       0.419000
     36 H13          0.8470     2.9160    -0.8370 h1         1 MOL       0.060700
     37 H14         -0.3420     2.2900    -2.0420 h1         1 MOL       0.060700
     38 H15         -1.7730     1.6380     2.2070 ha         1 MOL       0.143500
     39 H16         -1.1210    -0.4100     3.4110 ha         1 MOL       0.142500
     40 H17         -0.2280    -3.2020     2.2860 h1         1 MOL       0.047200
     41 H18          0.4770    -2.2440     3.6310 h1         1 MOL       0.047200
     42 H19          3.4320    -3.9280     2.7540 h1         1 MOL       0.060200
     43 H20          2.4400    -3.3140     4.0870 h1         1 MOL       0.060200
     44 H21          2.3610    -5.8740     3.5850 h1         1 MOL       0.039700
     45 H22          1.4240    -5.4470     2.1200 h1         1 MOL       0.039700
     46 H23          0.4780    -7.1030     4.1500 h1         1 MOL       0.035700
     47 H24         -1.7420    -5.5710     2.6630 hc         1 MOL       0.044033
     48 H25         -0.5080    -6.5670     1.9020 hc         1 MOL       0.044033
     49 H26         -1.7390    -7.3350     2.9200 hc         1 MOL       0.044033
     50 H27         -1.6480    -7.0880     5.4570 hc         1 MOL       0.044033
     51 H28         -1.7660    -5.3260     5.2380 hc         1 MOL       0.044033
     52 H29         -0.4430    -5.9990     6.1780 hc         1 MOL       0.044033
     53 H30          1.2450    -1.6230     0.0200 ha         1 MOL       0.142500
     54 H31          0.6070     0.4110    -1.1650 ha         1 MOL       0.143500
@<TRIPOS>BOND
     1     1     2 1   
     2     2     3 1   
     3     2     4 1   
     4     4     5 1   
     5     5     6 1   
     6     6     7 1   
     7     6     8 1   
     8     8     9 1   
     9     9    10 1   
    10    10    11 ar  
    11    11    12 ar  
    12    12    13 ar  
    13    13    14 1   
    14    14    15 1   
    15    15    16 1   
    16    16    17 1   
    17    17    18 1   
    18    18    19 1   
    19    19    20 1   
    20    19    21 1   
    21    13    22 ar  
    22    22    23 ar  
    23    23    10 ar  
    24     1    24 1   
    25     1    25 1   
    26     1    26 1   
    27     2    27 1   
    28     3    28 1   
    29     3    29 1   
    30     3    30 1   
    31     4    31 1   
    32     5    32 1   
    33     5    33 1   
    34     6    34 1   
    35     7    35 1   
    36     8    36 1   
    37     8    37 1   
    38    11    38 1   
    39    12    39 1   
    40    14    40 1   
    41    14    41 1   
    42    16    42 1   
    43    16    43 1   
    44    17    44 1   
    45    17    45 1   
    46    19    46 1   
    47    20    47 1   
    48    20    48 1   
    49    20    49 1   
    50    21    50 1   
    51    21    51 1   
    52    21    52 1   
    53    22    53 1   
    54    23    54 1   
@<TRIPOS>SUBSTRUCTURE
     1 MOL         1 TEMP              0 ****  ****    0 ROOT
