
     RDKit          3D

 85 88  0  0  0  0  0  0  0  0999 V2000
   -3.4167   -3.0742   -5.0677 C   0  0  0  0  0  0  0  0  0  0  0  0
   -2.4018   -3.7605   -4.5264 C   0  0  0  0  0  0  0  0  0  0  0  0
   -2.0185   -3.7154   -3.0818 C   0  0  0  0  0  0  0  0  0  0  0  0
   -0.6298   -3.3910   -2.9788 O   0  0  0  0  0  0  0  0  0  0  0  0
   -0.3716   -2.0064   -2.6425 C   0  0  2  0  0  0  0  0  0  0  0  0
    0.8550   -1.5559   -3.4695 C   0  0  0  0  0  0  0  0  0  0  0  0
    0.6682   -1.6301   -4.9979 C   0  0  0  0  0  0  0  0  0  0  0  0
    0.2497   -0.3167   -5.6914 C   0  0  0  0  0  0  0  0  0  0  0  0
    0.1728   -0.5331   -7.2072 C   0  0  0  0  0  0  0  0  0  0  0  0
   -1.0791    0.2382   -5.1880 C   0  0  0  0  0  0  0  0  0  0  0  0
    1.2431    0.6817   -5.4412 O   0  0  0  0  0  0  0  0  0  0  0  0
   -0.1391   -1.8909   -1.0782 C   0  0  2  0  0  0  0  0  0  0  0  0
    1.1214   -2.6655   -0.6589 C   0  0  0  0  0  0  0  0  0  0  0  0
   -1.2467   -2.5402   -0.4271 O   0  0  0  0  0  0  0  0  0  0  0  0
   -0.0968   -0.4027   -0.6063 C   0  0  1  0  0  0  0  0  0  0  0  0
   -1.4172    0.3660   -0.9275 C   0  0  0  0  0  0  0  0  0  0  0  0
   -1.6229    1.4231    0.1732 C   0  0  0  0  0  0  0  0  0  0  0  0
   -0.2732    1.4728    0.8874 C   0  0  1  0  0  0  0  0  0  0  0  0
    0.5943    2.2346    0.0293 O   0  0  0  0  0  0  0  0  0  0  0  0
   -0.1135    2.0718    2.2632 C   0  0  0  0  0  0  0  0  0  0  0  0
   -1.1459    2.5107    3.0028 C   0  0  0  0  0  0  0  0  0  0  0  0
   -0.9492    2.9076    4.4176 C   0  0  0  0  0  0  0  0  0  0  0  0
   -1.8598    3.4831    5.0064 O   0  0  0  0  0  0  0  0  0  0  0  0
    0.3651    2.5086    5.0710 C   0  0  2  0  0  0  0  0  0  0  0  0
    0.5156    3.1464    6.4631 C   0  0  0  0  0  0  0  0  0  0  0  0
    1.8458    2.7825    7.1125 C   0  0  1  0  0  0  0  0  0  0  0  0
    1.8414    1.3825    7.4169 O   0  0  0  0  0  0  0  0  0  0  0  0
    3.0400    3.0980    6.1987 C   0  0  1  0  0  0  0  0  0  0  0  0
    4.2292    2.5713    6.8000 O   0  0  0  0  0  0  0  0  0  0  0  0
    2.8766    2.4464    4.8199 C   0  0  0  0  0  0  0  0  0  0  0  0
    1.5465    2.8243    4.1150 C   0  0  2  0  0  0  0  0  0  0  0  0
    1.5993    4.3460    3.7772 C   0  0  0  0  0  0  0  0  0  0  0  0
    1.3437    2.0489    2.7570 C   0  0  0  0  0  0  0  0  0  0  0  0
    1.8671    0.5930    2.7192 C   0  0  0  0  0  0  0  0  0  0  0  0
    1.6330   -0.1060    1.3592 C   0  0  0  0  0  0  0  0  0  0  0  0
    0.1580   -0.0315    0.8983 C   0  0  2  0  0  0  0  0  0  0  0  0
   -0.7098   -0.8854    1.8622 C   0  0  0  0  0  0  0  0  0  0  0  0
   -4.0426   -2.4157   -4.4733 H   0  0  0  0  0  0  0  0  0  0  0  0
   -3.6402   -3.1582   -6.1269 H   0  0  0  0  0  0  0  0  0  0  0  0
   -1.8025   -4.4103   -5.1598 H   0  0  0  0  0  0  0  0  0  0  0  0
   -2.6520   -3.0342   -2.5029 H   0  0  0  0  0  0  0  0  0  0  0  0
   -2.1448   -4.7185   -2.6610 H   0  0  0  0  0  0  0  0  0  0  0  0
   -1.2412   -1.4090   -2.9329 H   0  0  0  0  0  0  0  0  0  0  0  0
    1.1769   -0.5515   -3.1822 H   0  0  0  0  0  0  0  0  0  0  0  0
    1.6863   -2.2338   -3.2379 H   0  0  0  0  0  0  0  0  0  0  0  0
    1.6458   -1.9174   -5.4111 H   0  0  0  0  0  0  0  0  0  0  0  0
   -0.0199   -2.4355   -5.2695 H   0  0  0  0  0  0  0  0  0  0  0  0
    1.1338   -0.8816   -7.6027 H   0  0  0  0  0  0  0  0  0  0  0  0
   -0.0499    0.4064   -7.7258 H   0  0  0  0  0  0  0  0  0  0  0  0
   -0.5963   -1.2668   -7.4702 H   0  0  0  0  0  0  0  0  0  0  0  0
   -1.0036    0.5612   -4.1466 H   0  0  0  0  0  0  0  0  0  0  0  0
   -1.8858   -0.4939   -5.2788 H   0  0  0  0  0  0  0  0  0  0  0  0
   -1.3654    1.1331   -5.7534 H   0  0  0  0  0  0  0  0  0  0  0  0
    2.0903    0.3562   -5.7910 H   0  0  0  0  0  0  0  0  0  0  0  0
    1.1251   -2.8747    0.4145 H   0  0  0  0  0  0  0  0  0  0  0  0
    1.1590   -3.6505   -1.1381 H   0  0  0  0  0  0  0  0  0  0  0  0
    2.0380   -2.1272   -0.9184 H   0  0  0  0  0  0  0  0  0  0  0  0
   -1.1647   -3.4879   -0.6398 H   0  0  0  0  0  0  0  0  0  0  0  0
    0.7038    0.0809   -1.1813 H   0  0  0  0  0  0  0  0  0  0  0  0
   -1.3317    0.8556   -1.9027 H   0  0  0  0  0  0  0  0  0  0  0  0
   -2.2921   -0.2914   -0.9691 H   0  0  0  0  0  0  0  0  0  0  0  0
   -1.9067    2.3840   -0.2700 H   0  0  0  0  0  0  0  0  0  0  0  0
   -2.4370    1.1077    0.8345 H   0  0  0  0  0  0  0  0  0  0  0  0
    0.2535    3.1456    0.0139 H   0  0  0  0  0  0  0  0  0  0  0  0
   -2.1707    2.5420    2.6536 H   0  0  0  0  0  0  0  0  0  0  0  0
    0.3051    1.4203    5.2183 H   0  0  0  0  0  0  0  0  0  0  0  0
   -0.3058    2.7955    7.1014 H   0  0  0  0  0  0  0  0  0  0  0  0
    0.4167    4.2364    6.4019 H   0  0  0  0  0  0  0  0  0  0  0  0
    1.9593    3.3053    8.0684 H   0  0  0  0  0  0  0  0  0  0  0  0
    2.7815    1.1204    7.4855 H   0  0  0  0  0  0  0  0  0  0  0  0
    3.1718    4.1800    6.0960 H   0  0  0  0  0  0  0  0  0  0  0  0
    4.4205    3.1130    7.5868 H   0  0  0  0  0  0  0  0  0  0  0  0
    2.9422    1.3604    4.9600 H   0  0  0  0  0  0  0  0  0  0  0  0
    3.7358    2.7090    4.1888 H   0  0  0  0  0  0  0  0  0  0  0  0
    1.6433    4.9764    4.6692 H   0  0  0  0  0  0  0  0  0  0  0  0
    2.4880    4.5751    3.1770 H   0  0  0  0  0  0  0  0  0  0  0  0
    0.7307    4.6756    3.1982 H   0  0  0  0  0  0  0  0  0  0  0  0
    1.9492    2.5917    2.0163 H   0  0  0  0  0  0  0  0  0  0  0  0
    2.9486    0.5814    2.8979 H   0  0  0  0  0  0  0  0  0  0  0  0
    1.4104    0.0037    3.5227 H   0  0  0  0  0  0  0  0  0  0  0  0
    1.9658   -1.1435    1.4547 H   0  0  0  0  0  0  0  0  0  0  0  0
    2.2875    0.3563    0.6095 H   0  0  0  0  0  0  0  0  0  0  0  0
   -0.3313   -1.9102    1.9297 H   0  0  0  0  0  0  0  0  0  0  0  0
   -1.7560   -0.9426    1.5473 H   0  0  0  0  0  0  0  0  0  0  0  0
   -0.7143   -0.4914    2.8829 H   0  0  0  0  0  0  0  0  0  0  0  0
  1  2  2  0
  2  3  1  0
  3  4  1  0
  4  5  1  0
  5  6  1  0
  6  7  1  0
  7  8  1  0
  8  9  1  0
  8 10  1  0
  8 11  1  0
  5 12  1  0
 12 13  1  0
 12 14  1  1
 12 15  1  0
 15 16  1  0
 16 17  1  0
 17 18  1  0
 18 19  1  6
 18 20  1  0
 20 21  2  0
 21 22  1  0
 22 23  2  0
 22 24  1  0
 24 25  1  0
 25 26  1  0
 26 27  1  0
 26 28  1  0
 28 29  1  0
 28 30  1  0
 30 31  1  0
 31 32  1  6
 31 33  1  0
 33 34  1  0
 34 35  1  0
 35 36  1  0
 36 37  1  1
 36 15  1  0
 36 18  1  0
 33 20  1  0
 31 24  1  0
  1 38  1  0
  1 39  1  0
  2 40  1  0
  3 41  1  0
  3 42  1  0
  5 43  1  6
  6 44  1  0
  6 45  1  0
  7 46  1  0
  7 47  1  0
  9 48  1  0
  9 49  1  0
  9 50  1  0
 10 51  1  0
 10 52  1  0
 10 53  1  0
 11 54  1  0
 13 55  1  0
 13 56  1  0
 13 57  1  0
 14 58  1  0
 15 59  1  6
 16 60  1  0
 16 61  1  0
 17 62  1  0
 17 63  1  0
 19 64  1  0
 21 65  1  0
 24 66  1  1
 25 67  1  0
 25 68  1  0
 26 69  1  1
 27 70  1  0
 28 71  1  6
 29 72  1  0
 30 73  1  0
 30 74  1  0
 32 75  1  0
 32 76  1  0
 32 77  1  0
 33 78  1  0
 34 79  1  0
 34 80  1  0
 35 81  1  0
 35 82  1  0
 37 83  1  0
 37 84  1  0
 37 85  1  0
M  END
$$$$
