@<TRIPOS>MOLECULE
MOL
   85    88     1     0     0
SMALL
bcc


@<TRIPOS>ATOM
      1 C1          -3.4170    -3.0740    -5.0680 c2         1 MOL      -0.214000
      2 C2          -2.4020    -3.7600    -4.5260 c2         1 MOL      -0.201200
      3 C3          -2.0180    -3.7150    -3.0820 c3         1 MOL       0.149600
      4 O1          -0.6300    -3.3910    -2.9790 os         1 MOL      -0.430600
      5 C4          -0.3720    -2.0060    -2.6430 c3         1 MOL       0.109100
      6 C5           0.8550    -1.5560    -3.4700 c3         1 MOL      -0.083400
      7 C6           0.6680    -1.6300    -4.9980 c3         1 MOL      -0.105400
      8 C7           0.2500    -0.3170    -5.6910 c3         1 MOL       0.145800
      9 C8           0.1730    -0.5330    -7.2070 c3         1 MOL      -0.105600
     10 C9          -1.0790     0.2380    -5.1880 c3         1 MOL      -0.105600
     11 O2           1.2430     0.6820    -5.4410 oh         1 MOL      -0.596800
     12 C10         -0.1390    -1.8910    -1.0780 c3         1 MOL       0.149800
     13 C11          1.1210    -2.6660    -0.6590 c3         1 MOL      -0.125100
     14 O3          -1.2470    -2.5400    -0.4270 oh         1 MOL      -0.606800
     15 C12         -0.0970    -0.4030    -0.6060 c3         1 MOL      -0.046700
     16 C13         -1.4170     0.3660    -0.9270 c3         1 MOL      -0.074400
     17 C14         -1.6230     1.4230     0.1730 c3         1 MOL      -0.094400
     18 C15         -0.2730     1.4730     0.8870 c3         1 MOL       0.165000
     19 O4           0.5940     2.2350     0.0290 oh         1 MOL      -0.591800
     20 C16         -0.1140     2.0720     2.2630 c2         1 MOL      -0.051400
     21 C17         -1.1460     2.5110     3.0030 ce         1 MOL      -0.254200
     22 C18         -0.9490     2.9080     4.4180 c          1 MOL       0.574300
     23 O5          -1.8600     3.4830     5.0060 o          1 MOL      -0.533100
     24 C19          0.3650     2.5090     5.0710 c3         1 MOL      -0.156700
     25 C20          0.5160     3.1460     6.4630 c3         1 MOL      -0.065400
     26 C21          1.8460     2.7830     7.1120 c3         1 MOL       0.115100
     27 O6           1.8410     1.3830     7.4170 oh         1 MOL      -0.600800
     28 C22          3.0400     3.0980     6.1990 c3         1 MOL       0.102100
     29 O7           4.2290     2.5710     6.8000 oh         1 MOL      -0.604800
     30 C23          2.8770     2.4460     4.8200 c3         1 MOL      -0.068400
     31 C24          1.5460     2.8240     4.1150 c3         1 MOL      -0.028000
     32 C25          1.5990     4.3460     3.7770 c3         1 MOL      -0.098100
     33 C26          1.3440     2.0490     2.7570 c3         1 MOL      -0.035500
     34 C27          1.8670     0.5930     2.7190 c3         1 MOL      -0.067400
     35 C28          1.6330    -0.1060     1.3590 c3         1 MOL      -0.070400
     36 C29          0.1580    -0.0320     0.8980 c3         1 MOL      -0.023000
     37 C30         -0.7100    -0.8850     1.8620 c3         1 MOL      -0.088100
     38 H1          -4.0430    -2.4160    -4.4730 ha         1 MOL       0.114000
     39 H2          -3.6400    -3.1580    -6.1270 ha         1 MOL       0.114000
     40 H3          -1.8020    -4.4100    -5.1600 ha         1 MOL       0.133000
     41 H4          -2.6520    -3.0340    -2.5030 h1         1 MOL       0.061700
     42 H5          -2.1450    -4.7180    -2.6610 h1         1 MOL       0.061700
     43 H6          -1.2410    -1.4090    -2.9330 h1         1 MOL       0.059700
     44 H7           1.1770    -0.5510    -3.1820 hc         1 MOL       0.063700
     45 H8           1.6860    -2.2340    -3.2380 hc         1 MOL       0.063700
     46 H9           1.6460    -1.9170    -5.4110 hc         1 MOL       0.048700
     47 H10         -0.0200    -2.4360    -5.2690 hc         1 MOL       0.048700
     48 H11          1.1340    -0.8820    -7.6030 hc         1 MOL       0.044533
     49 H12         -0.0500     0.4060    -7.7260 hc         1 MOL       0.044533
     50 H13         -0.5960    -1.2670    -7.4700 hc         1 MOL       0.044533
     51 H14         -1.0040     0.5610    -4.1470 hc         1 MOL       0.044533
     52 H15         -1.8860    -0.4940    -5.2790 hc         1 MOL       0.044533
     53 H16         -1.3650     1.1330    -5.7530 hc         1 MOL       0.044533
     54 H17          2.0900     0.3560    -5.7910 ho         1 MOL       0.397000
     55 H18          1.1250    -2.8750     0.4140 hc         1 MOL       0.048367
     56 H19          1.1590    -3.6510    -1.1380 hc         1 MOL       0.048367
     57 H20          2.0380    -2.1270    -0.9180 hc         1 MOL       0.048367
     58 H21         -1.1650    -3.4880    -0.6400 ho         1 MOL       0.410000
     59 H22          0.7040     0.0810    -1.1810 hc         1 MOL       0.072700
     60 H23         -1.3320     0.8560    -1.9030 hc         1 MOL       0.052200
     61 H24         -2.2920    -0.2910    -0.9690 hc         1 MOL       0.052200
     62 H25         -1.9070     2.3840    -0.2700 hc         1 MOL       0.052700
     63 H26         -2.4370     1.1080     0.8350 hc         1 MOL       0.052700
     64 H27          0.2540     3.1460     0.0140 ho         1 MOL       0.401000
     65 H28         -2.1710     2.5420     2.6540 ha         1 MOL       0.151000
     66 H29          0.3050     1.4200     5.2180 hc         1 MOL       0.092700
     67 H30         -0.3060     2.7960     7.1010 hc         1 MOL       0.067200
     68 H31          0.4170     4.2360     6.4020 hc         1 MOL       0.067200
     69 H32          1.9590     3.3050     8.0680 h1         1 MOL       0.033700
     70 H33          2.7810     1.1200     7.4860 ho         1 MOL       0.414000
     71 H34          3.1720     4.1800     6.0960 h1         1 MOL       0.047700
     72 H35          4.4200     3.1130     7.5870 ho         1 MOL       0.404000
     73 H36          2.9420     1.3600     4.9600 hc         1 MOL       0.063200
     74 H37          3.7360     2.7090     4.1890 hc         1 MOL       0.063200
     75 H38          1.6430     4.9760     4.6690 hc         1 MOL       0.040700
     76 H39          2.4880     4.5750     3.1770 hc         1 MOL       0.040700
     77 H40          0.7310     4.6760     3.1980 hc         1 MOL       0.040700
     78 H41          1.9490     2.5920     2.0160 hc         1 MOL       0.078700
     79 H42          2.9490     0.5810     2.8980 hc         1 MOL       0.047700
     80 H43          1.4100     0.0040     3.5230 hc         1 MOL       0.047700
     81 H44          1.9660    -1.1430     1.4550 hc         1 MOL       0.054700
     82 H45          2.2880     0.3560     0.6100 hc         1 MOL       0.054700
     83 H46         -0.3310    -1.9100     1.9300 hc         1 MOL       0.044700
     84 H47         -1.7560    -0.9430     1.5470 hc         1 MOL       0.044700
     85 H48         -0.7140    -0.4910     2.8830 hc         1 MOL       0.044700
@<TRIPOS>BOND
     1     1     2 2   
     2     2     3 1   
     3     3     4 1   
     4     4     5 1   
     5     5     6 1   
     6     6     7 1   
     7     7     8 1   
     8     8     9 1   
     9     8    10 1   
    10     8    11 1   
    11     5    12 1   
    12    12    13 1   
    13    12    14 1   
    14    12    15 1   
    15    15    16 1   
    16    16    17 1   
    17    17    18 1   
    18    18    19 1   
    19    18    20 1   
    20    20    21 2   
    21    21    22 1   
    22    22    23 2   
    23    22    24 1   
    24    24    25 1   
    25    25    26 1   
    26    26    27 1   
    27    26    28 1   
    28    28    29 1   
    29    28    30 1   
    30    30    31 1   
    31    31    32 1   
    32    31    33 1   
    33    33    34 1   
    34    34    35 1   
    35    35    36 1   
    36    36    37 1   
    37    36    15 1   
    38    36    18 1   
    39    33    20 1   
    40    31    24 1   
    41     1    38 1   
    42     1    39 1   
    43     2    40 1   
    44     3    41 1   
    45     3    42 1   
    46     5    43 1   
    47     6    44 1   
    48     6    45 1   
    49     7    46 1   
    50     7    47 1   
    51     9    48 1   
    52     9    49 1   
    53     9    50 1   
    54    10    51 1   
    55    10    52 1   
    56    10    53 1   
    57    11    54 1   
    58    13    55 1   
    59    13    56 1   
    60    13    57 1   
    61    14    58 1   
    62    15    59 1   
    63    16    60 1   
    64    16    61 1   
    65    17    62 1   
    66    17    63 1   
    67    19    64 1   
    68    21    65 1   
    69    24    66 1   
    70    25    67 1   
    71    25    68 1   
    72    26    69 1   
    73    27    70 1   
    74    28    71 1   
    75    29    72 1   
    76    30    73 1   
    77    30    74 1   
    78    32    75 1   
    79    32    76 1   
    80    32    77 1   
    81    33    78 1   
    82    34    79 1   
    83    34    80 1   
    84    35    81 1   
    85    35    82 1   
    86    37    83 1   
    87    37    84 1   
    88    37    85 1   
@<TRIPOS>SUBSTRUCTURE
     1 MOL         1 TEMP              0 ****  ****    0 ROOT
