@<TRIPOS>MOLECULE
MOL
   73    77     1     0     0
SMALL
bcc


@<TRIPOS>ATOM
      1 O1          -2.6730    -1.6720    -2.1770 o          1 MOL      -0.853800
      2 C1          -1.7410    -2.2110    -1.5190 c          1 MOL       0.899600
      3 O2          -1.4730    -3.4350    -1.3520 o          1 MOL      -0.853800
      4 C2          -0.7850    -1.2420    -0.8210 c3         1 MOL      -0.198400
      5 C3           0.1500    -0.4970    -1.7940 c3         1 MOL      -0.029700
      6 C4           1.1350     0.4310    -1.0410 c3         1 MOL      -0.076400
      7 C5           0.5890     1.6110    -0.2050 c3         1 MOL      -0.050700
      8 C6          -0.5890     2.3590    -0.8500 c3         1 MOL      -0.107900
      9 C7          -1.0030     3.5650    -0.0030 c3         1 MOL       0.074500
     10 N1          -1.2750     3.1540     1.3730 n          1 MOL      -0.444800
     11 C8          -2.5470     3.3370     1.8890 c          1 MOL       0.651100
     12 O3          -3.3980     4.0030     1.2910 o          1 MOL      -0.617100
     13 C9          -2.8890     2.7360     3.2430 c3         1 MOL      -0.144400
     14 C10         -4.3290     2.2170     3.2750 c3         1 MOL      -0.122700
     15 C11         -4.4070     0.8420     2.6580 ca         1 MOL       0.400600
     16 C12         -4.4880     0.6850     1.2790 ca         1 MOL      -0.278300
     17 C13         -4.4500    -0.5990     0.7540 ca         1 MOL      -0.071000
     18 C14         -4.3500    -1.6880     1.6190 ca         1 MOL      -0.193600
     19 C15         -4.2700    -1.4480     2.9910 ca         1 MOL       0.595200
     20 N2          -4.3030    -0.2060     3.5150 nb         1 MOL      -0.734000
     21 N3          -4.1610    -2.4860     3.8910 nu         1 MOL      -0.821900
     22 C16         -3.8210    -3.8090     3.4250 c3         1 MOL       0.183800
     23 C17         -4.5840    -4.1260     2.1450 c3         1 MOL      -0.071400
     24 C18         -4.2470    -3.0880     1.0770 c3         1 MOL      -0.058100
     25 C19         -0.1490     2.4970     2.0360 c3         1 MOL       0.074500
     26 C20          0.2750     1.2490     1.2600 c3         1 MOL      -0.107900
     27 C21          0.8610    -1.4880    -2.7920 c3         1 MOL      -0.064700
     28 C22          1.7240    -2.5810    -2.1510 c3         1 MOL       0.180800
     29 N4           3.0430    -2.1040    -1.7700 nu         1 MOL      -0.727600
     30 C23          3.7370    -1.2280    -2.5800 ca         1 MOL       0.167600
     31 C24          5.0880    -0.9610    -2.3270 ca         1 MOL      -0.211000
     32 C25          5.8080    -0.0690    -3.1240 ca         1 MOL      -0.104000
     33 C26          5.1810     0.5760    -4.1860 ca         1 MOL      -0.192000
     34 C27          3.8330     0.3340    -4.4410 ca         1 MOL      -0.102000
     35 C28          3.1040    -0.5540    -3.6340 ca         1 MOL      -0.125300
     36 C29          1.6430    -0.7940    -3.9250 c3         1 MOL      -0.027100
     37 H1          -1.4230    -0.5280    -0.2910 hc         1 MOL       0.030700
     38 H2          -0.2080    -1.7720    -0.0550 hc         1 MOL       0.030700
     39 H3          -0.4840     0.1400    -2.4260 hc         1 MOL       0.044700
     40 H4           1.7920    -0.1690    -0.4010 hc         1 MOL       0.043700
     41 H5           1.7830     0.8980    -1.7910 hc         1 MOL       0.043700
     42 H6           1.4220     2.3290    -0.1530 hc         1 MOL       0.024700
     43 H7          -1.4540     1.6940    -0.9510 hc         1 MOL       0.059700
     44 H8          -0.3160     2.6970    -1.8570 hc         1 MOL       0.059700
     45 H9          -0.1970     4.3080     0.0260 h1         1 MOL       0.049200
     46 H10         -1.8730     4.0470    -0.4600 h1         1 MOL       0.049200
     47 H11         -2.2190     1.9230     3.5260 hc         1 MOL       0.065200
     48 H12         -2.7710     3.5410     3.9770 hc         1 MOL       0.065200
     49 H13         -5.0360     2.8920     2.7800 hc         1 MOL       0.065700
     50 H14         -4.6540     2.1430     4.3200 hc         1 MOL       0.065700
     51 H15         -4.5450     1.5400     0.6130 ha         1 MOL       0.148000
     52 H16         -4.4640    -0.7510    -0.3240 ha         1 MOL       0.202000
     53 H17         -4.0520    -2.2070     4.8530 hn         1 MOL       0.389800
     54 H18         -2.7400    -3.8760     3.2530 h1         1 MOL       0.027700
     55 H19         -4.0730    -4.5410     4.2000 h1         1 MOL       0.027700
     56 H20         -5.6630    -4.1120     2.3460 hc         1 MOL       0.040200
     57 H21         -4.3320    -5.1300     1.7870 hc         1 MOL       0.040200
     58 H22         -3.2210    -3.2490     0.7320 hc         1 MOL       0.096700
     59 H23         -4.9190    -3.2180     0.2210 hc         1 MOL       0.096700
     60 H24         -0.3580     2.2480     3.0760 h1         1 MOL       0.049200
     61 H25          0.6760     3.2200     2.0580 h1         1 MOL       0.049200
     62 H26          1.1590     0.8100     1.7360 hc         1 MOL       0.059700
     63 H27         -0.5270     0.5080     1.3210 hc         1 MOL       0.059700
     64 H28          0.0410    -2.0060    -3.3070 hc         1 MOL       0.098700
     65 H29          1.8570    -3.3960    -2.8750 h1         1 MOL       0.064700
     66 H30          1.2420    -3.0270    -1.2780 h1         1 MOL       0.064700
     67 H31          3.5180    -2.5940    -1.0260 hn         1 MOL       0.393800
     68 H32          5.5890    -1.4570    -1.5010 ha         1 MOL       0.120000
     69 H33          6.8560     0.1190    -2.9140 ha         1 MOL       0.113000
     70 H34          5.7360     1.2690    -4.8110 ha         1 MOL       0.116000
     71 H35          3.3420     0.8430    -5.2660 ha         1 MOL       0.121000
     72 H36          1.6000    -1.4340    -4.8160 hc         1 MOL       0.042700
     73 H37          1.1530     0.1510    -4.1900 hc         1 MOL       0.042700
@<TRIPOS>BOND
     1     1     2 1   
     2     2     3 1   
     3     2     4 1   
     4     4     5 1   
     5     5     6 1   
     6     6     7 1   
     7     7     8 1   
     8     8     9 1   
     9     9    10 1   
    10    10    11 1   
    11    11    12 2   
    12    11    13 1   
    13    13    14 1   
    14    14    15 1   
    15    15    16 ar  
    16    16    17 ar  
    17    17    18 ar  
    18    18    19 ar  
    19    19    20 ar  
    20    19    21 1   
    21    21    22 1   
    22    22    23 1   
    23    23    24 1   
    24    10    25 1   
    25    25    26 1   
    26     5    27 1   
    27    27    28 1   
    28    28    29 1   
    29    29    30 1   
    30    30    31 ar  
    31    31    32 ar  
    32    32    33 ar  
    33    33    34 ar  
    34    34    35 ar  
    35    35    36 1   
    36    26     7 1   
    37    36    27 1   
    38    20    15 ar  
    39    35    30 ar  
    40    24    18 1   
    41     4    37 1   
    42     4    38 1   
    43     5    39 1   
    44     6    40 1   
    45     6    41 1   
    46     7    42 1   
    47     8    43 1   
    48     8    44 1   
    49     9    45 1   
    50     9    46 1   
    51    13    47 1   
    52    13    48 1   
    53    14    49 1   
    54    14    50 1   
    55    16    51 1   
    56    17    52 1   
    57    21    53 1   
    58    22    54 1   
    59    22    55 1   
    60    23    56 1   
    61    23    57 1   
    62    24    58 1   
    63    24    59 1   
    64    25    60 1   
    65    25    61 1   
    66    26    62 1   
    67    26    63 1   
    68    27    64 1   
    69    28    65 1   
    70    28    66 1   
    71    29    67 1   
    72    31    68 1   
    73    32    69 1   
    74    33    70 1   
    75    34    71 1   
    76    36    72 1   
    77    36    73 1   
@<TRIPOS>SUBSTRUCTURE
     1 MOL         1 TEMP              0 ****  ****    0 ROOT
