
     RDKit          3D

 73 77  0  0  0  0  0  0  0  0999 V2000
   -2.6734   -1.6723   -2.1774 O   0  0  0  0  0  0  0  0  0  0  0  0
   -1.7412   -2.2110   -1.5188 C   0  0  0  0  0  0  0  0  0  0  0  0
   -1.4729   -3.4348   -1.3522 O   0  0  0  0  0  0  0  0  0  0  0  0
   -0.7853   -1.2418   -0.8211 C   0  0  0  0  0  0  0  0  0  0  0  0
    0.1498   -0.4973   -1.7943 C   0  0  0  0  0  0  0  0  0  0  0  0
    1.1348    0.4311   -1.0410 C   0  0  0  0  0  0  0  0  0  0  0  0
    0.5886    1.6113   -0.2048 C   0  0  0  0  0  0  0  0  0  0  0  0
   -0.5893    2.3593   -0.8503 C   0  0  0  0  0  0  0  0  0  0  0  0
   -1.0030    3.5652   -0.0033 C   0  0  0  0  0  0  0  0  0  0  0  0
   -1.2751    3.1536    1.3735 N   0  0  0  0  0  0  0  0  0  0  0  0
   -2.5472    3.3366    1.8887 C   0  0  0  0  0  0  0  0  0  0  0  0
   -3.3978    4.0034    1.2906 O   0  0  0  0  0  0  0  0  0  0  0  0
   -2.8888    2.7356    3.2430 C   0  0  0  0  0  0  0  0  0  0  0  0
   -4.3286    2.2167    3.2746 C   0  0  0  0  0  0  0  0  0  0  0  0
   -4.4071    0.8416    2.6583 C   0  0  0  0  0  0  0  0  0  0  0  0
   -4.4878    0.6853    1.2789 C   0  0  0  0  0  0  0  0  0  0  0  0
   -4.4498   -0.5989    0.7544 C   0  0  0  0  0  0  0  0  0  0  0  0
   -4.3499   -1.6883    1.6189 C   0  0  0  0  0  0  0  0  0  0  0  0
   -4.2703   -1.4479    2.9913 C   0  0  0  0  0  0  0  0  0  0  0  0
   -4.3035   -0.2064    3.5151 N   0  0  0  0  0  0  0  0  0  0  0  0
   -4.1608   -2.4861    3.8907 N   0  0  0  0  0  0  0  0  0  0  0  0
   -3.8208   -3.8089    3.4250 C   0  0  0  0  0  0  0  0  0  0  0  0
   -4.5842   -4.1257    2.1451 C   0  0  0  0  0  0  0  0  0  0  0  0
   -4.2468   -3.0881    1.0767 C   0  0  0  0  0  0  0  0  0  0  0  0
   -0.1488    2.4969    2.0358 C   0  0  0  0  0  0  0  0  0  0  0  0
    0.2747    1.2487    1.2598 C   0  0  0  0  0  0  0  0  0  0  0  0
    0.8610   -1.4876   -2.7915 C   0  0  0  0  0  0  0  0  0  0  0  0
    1.7236   -2.5807   -2.1514 C   0  0  0  0  0  0  0  0  0  0  0  0
    3.0433   -2.1036   -1.7698 N   0  0  0  0  0  0  0  0  0  0  0  0
    3.7374   -1.2276   -2.5798 C   0  0  0  0  0  0  0  0  0  0  0  0
    5.0875   -0.9611   -2.3270 C   0  0  0  0  0  0  0  0  0  0  0  0
    5.8081   -0.0688   -3.1245 C   0  0  0  0  0  0  0  0  0  0  0  0
    5.1807    0.5758   -4.1858 C   0  0  0  0  0  0  0  0  0  0  0  0
    3.8326    0.3336   -4.4410 C   0  0  0  0  0  0  0  0  0  0  0  0
    3.1037   -0.5545   -3.6338 C   0  0  0  0  0  0  0  0  0  0  0  0
    1.6425   -0.7937   -3.9250 C   0  0  0  0  0  0  0  0  0  0  0  0
   -1.4225   -0.5279   -0.2911 H   0  0  0  0  0  0  0  0  0  0  0  0
   -0.2083   -1.7721   -0.0547 H   0  0  0  0  0  0  0  0  0  0  0  0
   -0.4844    0.1399   -2.4258 H   0  0  0  0  0  0  0  0  0  0  0  0
    1.7915   -0.1688   -0.4007 H   0  0  0  0  0  0  0  0  0  0  0  0
    1.7826    0.8981   -1.7911 H   0  0  0  0  0  0  0  0  0  0  0  0
    1.4222    2.3293   -0.1528 H   0  0  0  0  0  0  0  0  0  0  0  0
   -1.4542    1.6941   -0.9505 H   0  0  0  0  0  0  0  0  0  0  0  0
   -0.3160    2.6966   -1.8566 H   0  0  0  0  0  0  0  0  0  0  0  0
   -0.1971    4.3081    0.0261 H   0  0  0  0  0  0  0  0  0  0  0  0
   -1.8728    4.0470   -0.4603 H   0  0  0  0  0  0  0  0  0  0  0  0
   -2.2191    1.9230    3.5259 H   0  0  0  0  0  0  0  0  0  0  0  0
   -2.7712    3.5411    3.9772 H   0  0  0  0  0  0  0  0  0  0  0  0
   -5.0361    2.8915    2.7798 H   0  0  0  0  0  0  0  0  0  0  0  0
   -4.6536    2.1431    4.3201 H   0  0  0  0  0  0  0  0  0  0  0  0
   -4.5447    1.5404    0.6129 H   0  0  0  0  0  0  0  0  0  0  0  0
   -4.4640   -0.7514   -0.3244 H   0  0  0  0  0  0  0  0  0  0  0  0
   -4.0516   -2.2071    4.8533 H   0  0  0  0  0  0  0  0  0  0  0  0
   -2.7397   -3.8761    3.2532 H   0  0  0  0  0  0  0  0  0  0  0  0
   -4.0732   -4.5406    4.1996 H   0  0  0  0  0  0  0  0  0  0  0  0
   -5.6635   -4.1121    2.3460 H   0  0  0  0  0  0  0  0  0  0  0  0
   -4.3317   -5.1296    1.7869 H   0  0  0  0  0  0  0  0  0  0  0  0
   -3.2206   -3.2493    0.7316 H   0  0  0  0  0  0  0  0  0  0  0  0
   -4.9190   -3.2176    0.2209 H   0  0  0  0  0  0  0  0  0  0  0  0
   -0.3578    2.2475    3.0757 H   0  0  0  0  0  0  0  0  0  0  0  0
    0.6760    3.2203    2.0583 H   0  0  0  0  0  0  0  0  0  0  0  0
    1.1593    0.8099    1.7355 H   0  0  0  0  0  0  0  0  0  0  0  0
   -0.5267    0.5081    1.3213 H   0  0  0  0  0  0  0  0  0  0  0  0
    0.0405   -2.0065   -3.3067 H   0  0  0  0  0  0  0  0  0  0  0  0
    1.8567   -3.3960   -2.8746 H   0  0  0  0  0  0  0  0  0  0  0  0
    1.2415   -3.0272   -1.2781 H   0  0  0  0  0  0  0  0  0  0  0  0
    3.5184   -2.5944   -1.0264 H   0  0  0  0  0  0  0  0  0  0  0  0
    5.5892   -1.4566   -1.5010 H   0  0  0  0  0  0  0  0  0  0  0  0
    6.8564    0.1192   -2.9138 H   0  0  0  0  0  0  0  0  0  0  0  0
    5.7362    1.2687   -4.8105 H   0  0  0  0  0  0  0  0  0  0  0  0
    3.3416    0.8431   -5.2663 H   0  0  0  0  0  0  0  0  0  0  0  0
    1.6000   -1.4343   -4.8165 H   0  0  0  0  0  0  0  0  0  0  0  0
    1.1526    0.1512   -4.1898 H   0  0  0  0  0  0  0  0  0  0  0  0
  1  2  2  0
  2  3  1  0
  2  4  1  0
  4  5  1  0
  5  6  1  0
  6  7  1  0
  7  8  1  0
  8  9  1  0
  9 10  1  0
 10 11  1  0
 11 12  2  0
 11 13  1  0
 13 14  1  0
 14 15  1  0
 15 16  2  0
 16 17  1  0
 17 18  2  0
 18 19  1  0
 19 20  2  0
 19 21  1  0
 21 22  1  0
 22 23  1  0
 23 24  1  0
 10 25  1  0
 25 26  1  0
  5 27  1  0
 27 28  1  0
 28 29  1  0
 29 30  1  0
 30 31  2  0
 31 32  1  0
 32 33  2  0
 33 34  1  0
 34 35  2  0
 35 36  1  0
 26  7  1  0
 36 27  1  0
 20 15  1  0
 35 30  1  0
 24 18  1  0
  4 37  1  0
  4 38  1  0
  5 39  1  0
  6 40  1  0
  6 41  1  0
  7 42  1  0
  8 43  1  0
  8 44  1  0
  9 45  1  0
  9 46  1  0
 13 47  1  0
 13 48  1  0
 14 49  1  0
 14 50  1  0
 16 51  1  0
 17 52  1  0
 21 53  1  0
 22 54  1  0
 22 55  1  0
 23 56  1  0
 23 57  1  0
 24 58  1  0
 24 59  1  0
 25 60  1  0
 25 61  1  0
 26 62  1  0
 26 63  1  0
 27 64  1  0
 28 65  1  0
 28 66  1  0
 29 67  1  0
 31 68  1  0
 32 69  1  0
 33 70  1  0
 34 71  1  0
 36 72  1  0
 36 73  1  0
M  CHG  1   3  -1
M  END
$$$$
