@<TRIPOS>MOLECULE
MOL
   34    35     1     0     0
SMALL
bcc


@<TRIPOS>ATOM
      1 C1           2.9210     2.6280     0.6180 c3         1 MOL      -0.134100
      2 C2           1.6630     2.0240     1.2350 c3         1 MOL       0.130100
      3 O1           1.3830     0.7180     0.7190 os         1 MOL      -0.433600
      4 C3           0.9150     0.7030    -0.6380 c3         1 MOL       0.380200
      5 C4           0.5950    -0.7270    -1.0280 ca         1 MOL      -0.127300
      6 C5           1.3360    -1.8000    -0.5090 ca         1 MOL      -0.092500
      7 C6           1.0610    -3.1180    -0.8940 ca         1 MOL      -0.115000
      8 C7           0.0510    -3.4080    -1.8190 ca         1 MOL       0.042600
      9 N1          -0.2230    -4.7390    -2.2040 nh         1 MOL      -0.063000
     10 O2           0.4610    -5.8080    -1.6630 oh         1 MOL      -0.434800
     11 O3          -1.1590    -5.0370    -3.1740 oh         1 MOL      -0.434800
     12 C8          -0.6730    -2.3360    -2.3530 ca         1 MOL      -0.115000
     13 C9          -0.4030    -1.0160    -1.9710 ca         1 MOL      -0.092500
     14 O4          -0.2830     1.4890    -0.7260 os         1 MOL      -0.431600
     15 C10         -0.0500     2.8540    -0.3770 c3         1 MOL       0.105400
     16 C11          0.4040     2.8960     1.0840 c3         1 MOL       0.039500
     17 N2          -0.6890     2.2190     1.8860 nz         1 MOL      -0.833600
     18 H1           2.8250     2.8010    -0.4570 hc         1 MOL       0.073367
     19 H2           3.1660     3.5830     1.0950 hc         1 MOL       0.073367
     20 H3           3.7670     1.9460     0.7490 hc         1 MOL       0.073367
     21 H4           1.8680     1.8870     2.3040 h1         1 MOL       0.096700
     22 H5           1.6780     1.0850    -1.3260 h2         1 MOL       0.079700
     23 H6           2.1420    -1.6270     0.2010 ha         1 MOL       0.148500
     24 H7           1.6550    -3.9260    -0.4710 ha         1 MOL       0.166500
     25 H8          -0.2690    -6.3380    -1.2950 ho         1 MOL       0.431000
     26 H9          -0.5880    -5.2680    -3.9300 ho         1 MOL       0.431000
     27 H10         -1.4630    -2.5250    -3.0780 ha         1 MOL       0.166500
     28 H11         -0.9870    -0.2180    -2.4260 ha         1 MOL       0.148500
     29 H12          0.6770     3.3010    -1.0620 h1         1 MOL       0.097200
     30 H13         -0.9950     3.3940    -0.5010 h1         1 MOL       0.097200
     31 H14          0.5250     3.9100     1.4740 hx         1 MOL       0.124700
     32 H15         -0.8110     1.2660     1.4960 hn         1 MOL       0.467133
     33 H16         -0.4540     2.1080     2.8800 hn         1 MOL       0.467133
     34 H17         -1.5980     2.6900     1.8050 hn         1 MOL       0.467133
@<TRIPOS>BOND
     1     1     2 1   
     2     2     3 1   
     3     3     4 1   
     4     4     5 1   
     5     5     6 ar  
     6     6     7 ar  
     7     7     8 ar  
     8     8     9 1   
     9     9    10 1   
    10     9    11 1   
    11     8    12 ar  
    12    12    13 ar  
    13     4    14 1   
    14    14    15 1   
    15    15    16 1   
    16    16    17 1   
    17    16     2 1   
    18    13     5 ar  
    19     1    18 1   
    20     1    19 1   
    21     1    20 1   
    22     2    21 1   
    23     4    22 1   
    24     6    23 1   
    25     7    24 1   
    26    10    25 1   
    27    11    26 1   
    28    12    27 1   
    29    13    28 1   
    30    15    29 1   
    31    15    30 1   
    32    16    31 1   
    33    17    32 1   
    34    17    33 1   
    35    17    34 1   
@<TRIPOS>SUBSTRUCTURE
     1 MOL         1 TEMP              0 ****  ****    0 ROOT
