
     RDKit          3D

 34 35  0  0  0  0  0  0  0  0999 V2000
    2.9206    2.6281    0.6182 C   0  0  0  0  0  0  0  0  0  0  0  0
    1.6628    2.0243    1.2353 C   0  0  2  0  0  0  0  0  0  0  0  0
    1.3827    0.7183    0.7185 O   0  0  0  0  0  0  0  0  0  0  0  0
    0.9146    0.7029   -0.6383 C   0  0  1  0  0  0  0  0  0  0  0  0
    0.5951   -0.7265   -1.0282 C   0  0  0  0  0  0  0  0  0  0  0  0
    1.3360   -1.7997   -0.5095 C   0  0  0  0  0  0  0  0  0  0  0  0
    1.0614   -3.1180   -0.8939 C   0  0  0  0  0  0  0  0  0  0  0  0
    0.0515   -3.4082   -1.8187 C   0  0  0  0  0  0  0  0  0  0  0  0
   -0.2234   -4.7391   -2.2041 N   0  0  0  0  0  0  0  0  0  0  0  0
    0.4613   -5.8082   -1.6631 O   0  0  0  0  0  0  0  0  0  0  0  0
   -1.1588   -5.0373   -3.1743 O   0  0  0  0  0  0  0  0  0  0  0  0
   -0.6734   -2.3363   -2.3529 C   0  0  0  0  0  0  0  0  0  0  0  0
   -0.4032   -1.0161   -1.9713 C   0  0  0  0  0  0  0  0  0  0  0  0
   -0.2834    1.4887   -0.7258 O   0  0  0  0  0  0  0  0  0  0  0  0
   -0.0500    2.8542   -0.3768 C   0  0  0  0  0  0  0  0  0  0  0  0
    0.4044    2.8957    1.0836 C   0  0  1  0  0  0  0  0  0  0  0  0
   -0.6889    2.2194    1.8862 N   0  0  0  0  0  0  0  0  0  0  0  0
    2.8254    2.8011   -0.4569 H   0  0  0  0  0  0  0  0  0  0  0  0
    3.1658    3.5825    1.0946 H   0  0  0  0  0  0  0  0  0  0  0  0
    3.7673    1.9456    0.7492 H   0  0  0  0  0  0  0  0  0  0  0  0
    1.8682    1.8867    2.3042 H   0  0  0  0  0  0  0  0  0  0  0  0
    1.6780    1.0855   -1.3260 H   0  0  0  0  0  0  0  0  0  0  0  0
    2.1421   -1.6267    0.2012 H   0  0  0  0  0  0  0  0  0  0  0  0
    1.6549   -3.9261   -0.4711 H   0  0  0  0  0  0  0  0  0  0  0  0
   -0.2686   -6.3381   -1.2954 H   0  0  0  0  0  0  0  0  0  0  0  0
   -0.5879   -5.2682   -3.9296 H   0  0  0  0  0  0  0  0  0  0  0  0
   -1.4626   -2.5251   -3.0776 H   0  0  0  0  0  0  0  0  0  0  0  0
   -0.9872   -0.2181   -2.4260 H   0  0  0  0  0  0  0  0  0  0  0  0
    0.6775    3.3014   -1.0620 H   0  0  0  0  0  0  0  0  0  0  0  0
   -0.9946    3.3945   -0.5011 H   0  0  0  0  0  0  0  0  0  0  0  0
    0.5249    3.9097    1.4738 H   0  0  0  0  0  0  0  0  0  0  0  0
   -0.8112    1.2661    1.4960 H   0  0  0  0  0  0  0  0  0  0  0  0
   -0.4537    2.1078    2.8795 H   0  0  0  0  0  0  0  0  0  0  0  0
   -1.5978    2.6901    1.8048 H   0  0  0  0  0  0  0  0  0  0  0  0
  1  2  1  0
  2  3  1  0
  3  4  1  0
  4  5  1  0
  5  6  2  0
  6  7  1  0
  7  8  2  0
  8  9  1  0
  9 10  1  0
  9 11  1  0
  8 12  1  0
 12 13  2  0
  4 14  1  0
 14 15  1  0
 15 16  1  0
 16 17  1  0
 16  2  1  0
 13  5  1  0
  1 18  1  0
  1 19  1  0
  1 20  1  0
  2 21  1  1
  4 22  1  6
  6 23  1  0
  7 24  1  0
 10 25  1  0
 11 26  1  0
 12 27  1  0
 13 28  1  0
 15 29  1  0
 15 30  1  0
 16 31  1  1
 17 32  1  0
 17 33  1  0
 17 34  1  0
M  CHG  1  17   1
M  END
$$$$
